version 3
run OneMasterClock-0-20250409-11:13:06-591
attr configname OneMasterClock
attr datetime 20250409-11:13:06
attr datetimef 20250409-111306
attr experiment OneMasterClock
attr inifile omnetpp.ini
attr iterationvars ""
attr iterationvarsd ""
attr iterationvarsf ""
attr measurement ""
attr network d6g.simulations.timesync.TimeSyncNetwork
attr processid 591
attr repetition 0
attr replication #0
attr resultdir results
attr runnumber 0
attr seedset 0
config image-path ../../../inet/images
config sim-time-limit 1s
config network d6g.simulations.timesync.TimeSyncNetwork
config description timesync
config **.timeTransmitter*.clock.oscillator.typename RandomDriftOscillator
config **.oscillator.changeInterval 12.5ms
config **.oscillator.driftRate "uniform(-100ppm, 100ppm)"
config **.oscillator.driftRateChange "uniform(-1ppm, 1ppm)"
config **.oscillator.driftRateChangeUpperLimit 100ppm
config **.oscillator.driftRateChangeLowerLimit -100ppm
config *.*.hasTimeSynchronization true
config *.detCom.*.hasTimeSynchronization true
config *.*.eth[*].bitrate 100Mbps
config *.*.*.eth[*].bitrate 100Mbps
config **.referenceClock "\"timeTransmitter.clock\""
config *.visualizer.typename IntegratedMultiCanvasVisualizer
config *.visualizer.infoVisualizer[*].displayInfos true
config *.timeTransmitter.gptp.masterPorts "[\"eth0\"]"
config *.detCom.dstt[*].gptp.slavePort "\"tt0\""
config *.detCom.dstt[*].gptp.masterPorts "[\"eth0\"]"
config *.detCom.nwtt.gptp.slavePort "\"eth0\""
config *.detCom.nwtt.gptp.masterPorts "[\"tt0\",\"tt1\"]"
config *.tsnDevice1.gptp.slavePort "\"eth0\""
config *.tsnDevice2.gptp.slavePort "\"eth0\""
config *.visualizer.dataLinkVisualizer[0].displayLinks true
config *.visualizer.dataLinkVisualizer[0].activityLevel "\"protocol\""
config *.visualizer.dataLinkVisualizer[0].packetFilter "\"GptpSync\""
config *.visualizer.dataLinkVisualizer[0].lineColor "\"blue2\""
config *.visualizer.numInfoVisualizers 3
config *.visualizer.infoVisualizer[0].modules "\"*.tsnClock.clock\""
config *.timeTransmitter.clock.displayStringTextFormat "\"time: %T\""
config *.visualizer.infoVisualizer[1].modules "\"*.tsnSwitch.clock\""
config *.visualizer.infoVisualizer[1].placementHint "\"topLeft\""
config *.visualizer.infoVisualizer[2].modules "\"*.tsnDevice*.clock\""
config *.visualizer.infoVisualizer[2].placementHint "\"bottom\""
config *.tsnDevice*.clock.displayStringTextFormat "\"diff: %d\""
config *.masterClock.clock.displayStringTextFormat "\"diff: %d\""

par TimeSyncNetwork.timeTransmitter.ethg$o[0].channel typename "\"inet.node.ethernet.EthernetLink\""
par TimeSyncNetwork.timeTransmitter.ethg$o[0].channel disabled false
attr mutable ""
par TimeSyncNetwork.timeTransmitter.ethg$o[0].channel delay 5e-08s
attr mutable ""
attr unit s
par TimeSyncNetwork.timeTransmitter.ethg$o[0].channel datarate 0bps
attr mutable ""
attr unit bps
par TimeSyncNetwork.timeTransmitter.ethg$o[0].channel ber 0
attr mutable ""
par TimeSyncNetwork.timeTransmitter.ethg$o[0].channel per 0
attr mutable ""
par TimeSyncNetwork.timeTransmitter.ethg$o[0].channel length 10m
attr unit m
par TimeSyncNetwork.detCom.nwttg$o.channel typename "\"inet.node.ethernet.EthernetLink\""
par TimeSyncNetwork.detCom.nwttg$o.channel disabled false
attr mutable ""
par TimeSyncNetwork.detCom.nwttg$o.channel delay 5e-08s
attr mutable ""
attr unit s
par TimeSyncNetwork.detCom.nwttg$o.channel datarate 0bps
attr mutable ""
attr unit bps
par TimeSyncNetwork.detCom.nwttg$o.channel ber 0
attr mutable ""
par TimeSyncNetwork.detCom.nwttg$o.channel per 0
attr mutable ""
par TimeSyncNetwork.detCom.nwttg$o.channel length 10m
attr unit m
par TimeSyncNetwork.tsnDevice1.ethg$o[0].channel typename "\"inet.node.ethernet.EthernetLink\""
par TimeSyncNetwork.tsnDevice1.ethg$o[0].channel disabled false
attr mutable ""
par TimeSyncNetwork.tsnDevice1.ethg$o[0].channel delay 5e-08s
attr mutable ""
attr unit s
par TimeSyncNetwork.tsnDevice1.ethg$o[0].channel datarate 0bps
attr mutable ""
attr unit bps
par TimeSyncNetwork.tsnDevice1.ethg$o[0].channel ber 0
attr mutable ""
par TimeSyncNetwork.tsnDevice1.ethg$o[0].channel per 0
attr mutable ""
par TimeSyncNetwork.tsnDevice1.ethg$o[0].channel length 10m
attr unit m
par TimeSyncNetwork.detCom.dsttg$o[0].channel typename "\"inet.node.ethernet.EthernetLink\""
par TimeSyncNetwork.detCom.dsttg$o[0].channel disabled false
attr mutable ""
par TimeSyncNetwork.detCom.dsttg$o[0].channel delay 5e-08s
attr mutable ""
attr unit s
par TimeSyncNetwork.detCom.dsttg$o[0].channel datarate 0bps
attr mutable ""
attr unit bps
par TimeSyncNetwork.detCom.dsttg$o[0].channel ber 0
attr mutable ""
par TimeSyncNetwork.detCom.dsttg$o[0].channel per 0
attr mutable ""
par TimeSyncNetwork.detCom.dsttg$o[0].channel length 10m
attr unit m
par TimeSyncNetwork.tsnDevice2.ethg$o[0].channel typename "\"inet.node.ethernet.EthernetLink\""
par TimeSyncNetwork.tsnDevice2.ethg$o[0].channel disabled false
attr mutable ""
par TimeSyncNetwork.tsnDevice2.ethg$o[0].channel delay 5e-08s
attr mutable ""
attr unit s
par TimeSyncNetwork.tsnDevice2.ethg$o[0].channel datarate 0bps
attr mutable ""
attr unit bps
par TimeSyncNetwork.tsnDevice2.ethg$o[0].channel ber 0
attr mutable ""
par TimeSyncNetwork.tsnDevice2.ethg$o[0].channel per 0
attr mutable ""
par TimeSyncNetwork.tsnDevice2.ethg$o[0].channel length 10m
attr unit m
par TimeSyncNetwork.detCom.dsttg$o[1].channel typename "\"inet.node.ethernet.EthernetLink\""
par TimeSyncNetwork.detCom.dsttg$o[1].channel disabled false
attr mutable ""
par TimeSyncNetwork.detCom.dsttg$o[1].channel delay 5e-08s
attr mutable ""
attr unit s
par TimeSyncNetwork.detCom.dsttg$o[1].channel datarate 0bps
attr mutable ""
attr unit bps
par TimeSyncNetwork.detCom.dsttg$o[1].channel ber 0
attr mutable ""
par TimeSyncNetwork.detCom.dsttg$o[1].channel per 0
attr mutable ""
par TimeSyncNetwork.detCom.dsttg$o[1].channel length 10m
attr unit m
par TimeSyncNetwork.visualizer.sceneVisualizer[0] typename "\"inet.visualizer.canvas.scene.SceneCanvasVisualizer\""
par TimeSyncNetwork.visualizer.sceneVisualizer[0] visualizationTargetModule "\"^.^\""
par TimeSyncNetwork.visualizer.sceneVisualizer[0] visualizationSubjectModule "\"^.^\""
par TimeSyncNetwork.visualizer.sceneVisualizer[0] tags "\"\""
par TimeSyncNetwork.visualizer.sceneVisualizer[0] physicalEnvironmentModule "\"physicalEnvironment\""
par TimeSyncNetwork.visualizer.sceneVisualizer[0] networkNodeVisualizerModule "\"TimeSyncNetwork.visualizer.networkNodeVisualizer[0]\""
par TimeSyncNetwork.visualizer.sceneVisualizer[0] axisLength "nan m"
attr mutable ""
attr unit m
par TimeSyncNetwork.visualizer.sceneVisualizer[0] animationSpeed 0
par TimeSyncNetwork.visualizer.sceneVisualizer[0] sceneMinX "nan m"
attr unit m
par TimeSyncNetwork.visualizer.sceneVisualizer[0] sceneMinY "nan m"
attr unit m
par TimeSyncNetwork.visualizer.sceneVisualizer[0] sceneMinZ "nan m"
attr unit m
par TimeSyncNetwork.visualizer.sceneVisualizer[0] sceneMaxX "nan m"
attr unit m
par TimeSyncNetwork.visualizer.sceneVisualizer[0] sceneMaxY "nan m"
attr unit m
par TimeSyncNetwork.visualizer.sceneVisualizer[0] sceneMaxZ "nan m"
attr unit m
par TimeSyncNetwork.visualizer.sceneVisualizer[0] zIndex 0
par TimeSyncNetwork.visualizer.sceneVisualizer[0] viewAngle "\"x right y down z out\""
attr mutable ""
par TimeSyncNetwork.visualizer.sceneVisualizer[0] viewScale "\"1 1\""
attr mutable ""
par TimeSyncNetwork.visualizer.sceneVisualizer[0] viewTranslation "\"0 0\""
attr mutable ""
par TimeSyncNetwork.visualizer.sceneVisualizer[0] descriptionFigure "\"\""
par TimeSyncNetwork.visualizer.physicalEnvironmentVisualizer[0] typename "\"inet.visualizer.canvas.environment.PhysicalEnvironmentCanvasVisualizer\""
par TimeSyncNetwork.visualizer.physicalEnvironmentVisualizer[0] visualizationTargetModule "\"^.^\""
par TimeSyncNetwork.visualizer.physicalEnvironmentVisualizer[0] visualizationSubjectModule "\"^.^\""
par TimeSyncNetwork.visualizer.physicalEnvironmentVisualizer[0] tags "\"\""
par TimeSyncNetwork.visualizer.physicalEnvironmentVisualizer[0] physicalEnvironmentModule "\"physicalEnvironment\""
par TimeSyncNetwork.visualizer.physicalEnvironmentVisualizer[0] displayObjects true
par TimeSyncNetwork.visualizer.physicalEnvironmentVisualizer[0] zIndex 0
par TimeSyncNetwork.visualizer.networkNodeVisualizer[0] typename "\"inet.visualizer.canvas.scene.NetworkNodeCanvasVisualizer\""
par TimeSyncNetwork.visualizer.networkNodeVisualizer[0] visualizationTargetModule "\"^.^\""
par TimeSyncNetwork.visualizer.networkNodeVisualizer[0] visualizationSubjectModule "\"^.^\""
par TimeSyncNetwork.visualizer.networkNodeVisualizer[0] tags "\"\""
par TimeSyncNetwork.visualizer.networkNodeVisualizer[0] nodeFilter "\"*\""
attr mutable ""
par TimeSyncNetwork.visualizer.networkNodeVisualizer[0] annotationSpacing 4
par TimeSyncNetwork.visualizer.networkNodeVisualizer[0] placementPenalty 10
par TimeSyncNetwork.visualizer.networkNodeVisualizer[0] zIndex 0
par TimeSyncNetwork.visualizer.networkConnectionVisualizer[0] typename "\"inet.visualizer.canvas.scene.NetworkConnectionCanvasVisualizer\""
par TimeSyncNetwork.visualizer.networkConnectionVisualizer[0] visualizationTargetModule "\"^.^\""
par TimeSyncNetwork.visualizer.networkConnectionVisualizer[0] visualizationSubjectModule "\"^.^\""
par TimeSyncNetwork.visualizer.networkConnectionVisualizer[0] tags "\"\""
par TimeSyncNetwork.visualizer.networkConnectionVisualizer[0] displayNetworkConnections true
par TimeSyncNetwork.visualizer.networkConnectionVisualizer[0] nodeFilter "\"\""
attr mutable ""
par TimeSyncNetwork.visualizer.networkConnectionVisualizer[0] lineColor "\"black\""
par TimeSyncNetwork.visualizer.networkConnectionVisualizer[0] lineStyle "\"solid\""
par TimeSyncNetwork.visualizer.networkConnectionVisualizer[0] lineWidth 1
par TimeSyncNetwork.visualizer.networkConnectionVisualizer[0] zIndex 0
par TimeSyncNetwork.visualizer.mobilityVisualizer[0] typename "\"inet.visualizer.canvas.mobility.MobilityCanvasVisualizer\""
par TimeSyncNetwork.visualizer.mobilityVisualizer[0] visualizationTargetModule "\"^.^\""
par TimeSyncNetwork.visualizer.mobilityVisualizer[0] visualizationSubjectModule "\"^.^\""
par TimeSyncNetwork.visualizer.mobilityVisualizer[0] tags "\"\""
par TimeSyncNetwork.visualizer.mobilityVisualizer[0] networkNodeVisualizerModule "\"TimeSyncNetwork.visualizer.networkNodeVisualizer[0]\""
par TimeSyncNetwork.visualizer.mobilityVisualizer[0] displayMobility true
par TimeSyncNetwork.visualizer.mobilityVisualizer[0] animationSpeed 0
par TimeSyncNetwork.visualizer.mobilityVisualizer[0] moduleFilter "\"**.mobility\""
attr mutable ""
par TimeSyncNetwork.visualizer.mobilityVisualizer[0] displayPositions false
par TimeSyncNetwork.visualizer.mobilityVisualizer[0] positionCircleRadius 4
par TimeSyncNetwork.visualizer.mobilityVisualizer[0] positionCircleLineWidth 1
par TimeSyncNetwork.visualizer.mobilityVisualizer[0] positionCircleLineColor "\"dark\""
attr enum light,dark
par TimeSyncNetwork.visualizer.mobilityVisualizer[0] positionCircleFillColor "\"dark\""
attr enum light,dark
par TimeSyncNetwork.visualizer.mobilityVisualizer[0] displayOrientations false
par TimeSyncNetwork.visualizer.mobilityVisualizer[0] orientationPieRadius 32
par TimeSyncNetwork.visualizer.mobilityVisualizer[0] orientationPieSize 0.2
par TimeSyncNetwork.visualizer.mobilityVisualizer[0] orientationPieOpacity 0.25
par TimeSyncNetwork.visualizer.mobilityVisualizer[0] orientationLineColor "\"black\""
par TimeSyncNetwork.visualizer.mobilityVisualizer[0] orientationLineStyle "\"solid\""
par TimeSyncNetwork.visualizer.mobilityVisualizer[0] orientationLineWidth 1
par TimeSyncNetwork.visualizer.mobilityVisualizer[0] orientationFillColor "\"blue\""
par TimeSyncNetwork.visualizer.mobilityVisualizer[0] displayVelocities false
par TimeSyncNetwork.visualizer.mobilityVisualizer[0] velocityArrowScale 1
par TimeSyncNetwork.visualizer.mobilityVisualizer[0] velocityLineColor "\"black\""
par TimeSyncNetwork.visualizer.mobilityVisualizer[0] velocityLineStyle "\"solid\""
par TimeSyncNetwork.visualizer.mobilityVisualizer[0] velocityLineWidth 1
par TimeSyncNetwork.visualizer.mobilityVisualizer[0] displayMovementTrails false
par TimeSyncNetwork.visualizer.mobilityVisualizer[0] movementTrailLineColor "\"dark\""
attr enum light,dark
par TimeSyncNetwork.visualizer.mobilityVisualizer[0] movementTrailLineStyle "\"solid\""
par TimeSyncNetwork.visualizer.mobilityVisualizer[0] movementTrailLineWidth 1
par TimeSyncNetwork.visualizer.mobilityVisualizer[0] trailLength 100
par TimeSyncNetwork.visualizer.mobilityVisualizer[0] zIndex 0
par TimeSyncNetwork.visualizer.statisticVisualizer[0] typename "\"inet.visualizer.canvas.common.StatisticCanvasVisualizer\""
par TimeSyncNetwork.visualizer.statisticVisualizer[0] visualizationTargetModule "\"^.^\""
par TimeSyncNetwork.visualizer.statisticVisualizer[0] visualizationSubjectModule "\"^.^\""
par TimeSyncNetwork.visualizer.statisticVisualizer[0] tags "\"\""
par TimeSyncNetwork.visualizer.statisticVisualizer[0] networkNodeVisualizerModule "\"TimeSyncNetwork.visualizer.networkNodeVisualizer[0]\""
par TimeSyncNetwork.visualizer.statisticVisualizer[0] displayStatistics true
par TimeSyncNetwork.visualizer.statisticVisualizer[0] signalName "\"\""
par TimeSyncNetwork.visualizer.statisticVisualizer[0] statisticName "\"\""
par TimeSyncNetwork.visualizer.statisticVisualizer[0] statisticUnit "\"\""
par TimeSyncNetwork.visualizer.statisticVisualizer[0] statisticExpression "\"\""
par TimeSyncNetwork.visualizer.statisticVisualizer[0] sourceFilter "\"**\""
attr mutable ""
par TimeSyncNetwork.visualizer.statisticVisualizer[0] format "\"%n: %v %u\""
attr mutable ""
par TimeSyncNetwork.visualizer.statisticVisualizer[0] unit "\"\""
par TimeSyncNetwork.visualizer.statisticVisualizer[0] font "\"<default>\""
par TimeSyncNetwork.visualizer.statisticVisualizer[0] textColor "\"black\""
par TimeSyncNetwork.visualizer.statisticVisualizer[0] backgroundColor "\"white\""
par TimeSyncNetwork.visualizer.statisticVisualizer[0] opacity 1
par TimeSyncNetwork.visualizer.statisticVisualizer[0] placementHint "\"top\""
par TimeSyncNetwork.visualizer.statisticVisualizer[0] placementPriority 0
par TimeSyncNetwork.visualizer.statisticVisualizer[0] zIndex 10
par TimeSyncNetwork.visualizer.statisticVisualizer[0] propertyName "\"\""
par TimeSyncNetwork.visualizer.statisticVisualizer[0] propertyIndex "\"\""
par TimeSyncNetwork.visualizer.infoVisualizer[0] typename "\"inet.visualizer.canvas.common.InfoCanvasVisualizer\""
par TimeSyncNetwork.visualizer.infoVisualizer[0] visualizationTargetModule "\"^.^\""
par TimeSyncNetwork.visualizer.infoVisualizer[0] visualizationSubjectModule "\"^.^\""
par TimeSyncNetwork.visualizer.infoVisualizer[0] tags "\"\""
par TimeSyncNetwork.visualizer.infoVisualizer[0] networkNodeVisualizerModule "\"TimeSyncNetwork.visualizer.networkNodeVisualizer[0]\""
par TimeSyncNetwork.visualizer.infoVisualizer[0] displayInfos true
par TimeSyncNetwork.visualizer.infoVisualizer[0] modules "\"*.tsnClock.clock\""
attr mutable ""
par TimeSyncNetwork.visualizer.infoVisualizer[0] format "\"%t\""
attr mutable ""
par TimeSyncNetwork.visualizer.infoVisualizer[0] font "\"<default>\""
par TimeSyncNetwork.visualizer.infoVisualizer[0] textColor "\"black\""
par TimeSyncNetwork.visualizer.infoVisualizer[0] backgroundColor "\"white\""
par TimeSyncNetwork.visualizer.infoVisualizer[0] opacity 1
par TimeSyncNetwork.visualizer.infoVisualizer[0] placementHint "\"top\""
par TimeSyncNetwork.visualizer.infoVisualizer[0] placementPriority 0
par TimeSyncNetwork.visualizer.infoVisualizer[0] zIndex 10
par TimeSyncNetwork.visualizer.infoVisualizer[1] typename "\"inet.visualizer.canvas.common.InfoCanvasVisualizer\""
par TimeSyncNetwork.visualizer.infoVisualizer[1] visualizationTargetModule "\"^.^\""
par TimeSyncNetwork.visualizer.infoVisualizer[1] visualizationSubjectModule "\"^.^\""
par TimeSyncNetwork.visualizer.infoVisualizer[1] tags "\"\""
par TimeSyncNetwork.visualizer.infoVisualizer[1] networkNodeVisualizerModule "\"TimeSyncNetwork.visualizer.networkNodeVisualizer[0]\""
par TimeSyncNetwork.visualizer.infoVisualizer[1] displayInfos true
par TimeSyncNetwork.visualizer.infoVisualizer[1] modules "\"*.tsnSwitch.clock\""
attr mutable ""
par TimeSyncNetwork.visualizer.infoVisualizer[1] format "\"%t\""
attr mutable ""
par TimeSyncNetwork.visualizer.infoVisualizer[1] font "\"<default>\""
par TimeSyncNetwork.visualizer.infoVisualizer[1] textColor "\"black\""
par TimeSyncNetwork.visualizer.infoVisualizer[1] backgroundColor "\"white\""
par TimeSyncNetwork.visualizer.infoVisualizer[1] opacity 1
par TimeSyncNetwork.visualizer.infoVisualizer[1] placementHint "\"topLeft\""
par TimeSyncNetwork.visualizer.infoVisualizer[1] placementPriority 0
par TimeSyncNetwork.visualizer.infoVisualizer[1] zIndex 10
par TimeSyncNetwork.visualizer.infoVisualizer[2] typename "\"inet.visualizer.canvas.common.InfoCanvasVisualizer\""
par TimeSyncNetwork.visualizer.infoVisualizer[2] visualizationTargetModule "\"^.^\""
par TimeSyncNetwork.visualizer.infoVisualizer[2] visualizationSubjectModule "\"^.^\""
par TimeSyncNetwork.visualizer.infoVisualizer[2] tags "\"\""
par TimeSyncNetwork.visualizer.infoVisualizer[2] networkNodeVisualizerModule "\"TimeSyncNetwork.visualizer.networkNodeVisualizer[0]\""
par TimeSyncNetwork.visualizer.infoVisualizer[2] displayInfos true
par TimeSyncNetwork.visualizer.infoVisualizer[2] modules "\"*.tsnDevice*.clock\""
attr mutable ""
par TimeSyncNetwork.visualizer.infoVisualizer[2] format "\"%t\""
attr mutable ""
par TimeSyncNetwork.visualizer.infoVisualizer[2] font "\"<default>\""
par TimeSyncNetwork.visualizer.infoVisualizer[2] textColor "\"black\""
par TimeSyncNetwork.visualizer.infoVisualizer[2] backgroundColor "\"white\""
par TimeSyncNetwork.visualizer.infoVisualizer[2] opacity 1
par TimeSyncNetwork.visualizer.infoVisualizer[2] placementHint "\"bottom\""
par TimeSyncNetwork.visualizer.infoVisualizer[2] placementPriority 0
par TimeSyncNetwork.visualizer.infoVisualizer[2] zIndex 10
par TimeSyncNetwork.visualizer.energyStorageVisualizer[0] typename "\"inet.visualizer.canvas.power.EnergyStorageCanvasVisualizer\""
par TimeSyncNetwork.visualizer.energyStorageVisualizer[0] visualizationTargetModule "\"^.^\""
par TimeSyncNetwork.visualizer.energyStorageVisualizer[0] visualizationSubjectModule "\"^.^\""
par TimeSyncNetwork.visualizer.energyStorageVisualizer[0] tags "\"\""
par TimeSyncNetwork.visualizer.energyStorageVisualizer[0] networkNodeVisualizerModule "\"TimeSyncNetwork.visualizer.networkNodeVisualizer[0]\""
par TimeSyncNetwork.visualizer.energyStorageVisualizer[0] displayEnergyStorages false
par TimeSyncNetwork.visualizer.energyStorageVisualizer[0] energyStorageFilter "\"**\""
par TimeSyncNetwork.visualizer.energyStorageVisualizer[0] color "\"green\""
par TimeSyncNetwork.visualizer.energyStorageVisualizer[0] width 8
par TimeSyncNetwork.visualizer.energyStorageVisualizer[0] height 24
par TimeSyncNetwork.visualizer.energyStorageVisualizer[0] spacing 2
par TimeSyncNetwork.visualizer.energyStorageVisualizer[0] placementHint "\"right\""
par TimeSyncNetwork.visualizer.energyStorageVisualizer[0] placementPriority 0
par TimeSyncNetwork.visualizer.energyStorageVisualizer[0] zIndex 10
par TimeSyncNetwork.visualizer.mediumVisualizer[0] typename "\"inet.visualizer.canvas.physicallayer.MediumCanvasVisualizer\""
par TimeSyncNetwork.visualizer.mediumVisualizer[0] visualizationTargetModule "\"^.^\""
par TimeSyncNetwork.visualizer.mediumVisualizer[0] visualizationSubjectModule "\"^.^\""
par TimeSyncNetwork.visualizer.mediumVisualizer[0] tags "\"\""
par TimeSyncNetwork.visualizer.mediumVisualizer[0] mediumModule "\"radioMedium\""
par TimeSyncNetwork.visualizer.mediumVisualizer[0] networkNodeVisualizerModule "\"TimeSyncNetwork.visualizer.networkNodeVisualizer[0]\""
par TimeSyncNetwork.visualizer.mediumVisualizer[0] nodeFilter "\"*\""
attr mutable ""
par TimeSyncNetwork.visualizer.mediumVisualizer[0] interfaceFilter "\"*\""
attr mutable ""
par TimeSyncNetwork.visualizer.mediumVisualizer[0] packetFilter "(omnetpp::cValueHolder)holder: \"*\""
attr mutable ""
par TimeSyncNetwork.visualizer.mediumVisualizer[0] displaySignals false
par TimeSyncNetwork.visualizer.mediumVisualizer[0] signalColor "\"dark\""
attr enum light,dark
par TimeSyncNetwork.visualizer.mediumVisualizer[0] signalPropagationAnimationSpeed "nan "
attr mutable ""
par TimeSyncNetwork.visualizer.mediumVisualizer[0] signalPropagationAnimationTime 1s
attr unit s
par TimeSyncNetwork.visualizer.mediumVisualizer[0] signalPropagationAdditionalTime 0s
attr unit s
par TimeSyncNetwork.visualizer.mediumVisualizer[0] signalTransmissionAnimationSpeed "nan "
attr mutable ""
par TimeSyncNetwork.visualizer.mediumVisualizer[0] signalTransmissionAnimationTime 1s
attr unit s
par TimeSyncNetwork.visualizer.mediumVisualizer[0] signalAnimationSpeedChangeTimeMode "\"realTime\""
attr enum realTime,animationTime,simulationTime
par TimeSyncNetwork.visualizer.mediumVisualizer[0] signalAnimationSpeedChangeTime 1s
attr unit s
par TimeSyncNetwork.visualizer.mediumVisualizer[0] displaySignalDepartures false
par TimeSyncNetwork.visualizer.mediumVisualizer[0] signalDepartureImage "\"misc/signal_departure.png\""
par TimeSyncNetwork.visualizer.mediumVisualizer[0] signalDeparturePlacementHint "\"topCenter\""
par TimeSyncNetwork.visualizer.mediumVisualizer[0] signalDeparturePlacementPriority 1
par TimeSyncNetwork.visualizer.mediumVisualizer[0] displaySignalArrivals false
par TimeSyncNetwork.visualizer.mediumVisualizer[0] signalArrivalImage "\"misc/signal_arrival.png\""
par TimeSyncNetwork.visualizer.mediumVisualizer[0] signalArrivalPlacementHint "\"topCenter\""
par TimeSyncNetwork.visualizer.mediumVisualizer[0] signalArrivalPlacementPriority -1
par TimeSyncNetwork.visualizer.mediumVisualizer[0] displayCommunicationRanges false
par TimeSyncNetwork.visualizer.mediumVisualizer[0] communicationRangeLineColor "\"blue\""
par TimeSyncNetwork.visualizer.mediumVisualizer[0] communicationRangeLineStyle "\"solid\""
par TimeSyncNetwork.visualizer.mediumVisualizer[0] communicationRangeLineWidth 1
par TimeSyncNetwork.visualizer.mediumVisualizer[0] displayInterferenceRanges false
par TimeSyncNetwork.visualizer.mediumVisualizer[0] interferenceRangeLineColor "\"gray\""
par TimeSyncNetwork.visualizer.mediumVisualizer[0] interferenceRangeLineStyle "\"solid\""
par TimeSyncNetwork.visualizer.mediumVisualizer[0] interferenceRangeLineWidth 1
par TimeSyncNetwork.visualizer.mediumVisualizer[0] autoPowerAxis true
par TimeSyncNetwork.visualizer.mediumVisualizer[0] signalMinPower "inf dBmW"
attr unit dBmW
par TimeSyncNetwork.visualizer.mediumVisualizer[0] signalMaxPower 0dBmW
attr unit dBmW
par TimeSyncNetwork.visualizer.mediumVisualizer[0] signalMinPowerDensity "inf dBmWpMHz"
attr unit dBmWpMHz
par TimeSyncNetwork.visualizer.mediumVisualizer[0] signalMaxPowerDensity "-inf dBmWpMHz"
attr unit dBmWpMHz
par TimeSyncNetwork.visualizer.mediumVisualizer[0] autoTimeAxis true
par TimeSyncNetwork.visualizer.mediumVisualizer[0] signalMinTime 0s
attr unit s
par TimeSyncNetwork.visualizer.mediumVisualizer[0] signalMaxTime 0s
attr unit s
par TimeSyncNetwork.visualizer.mediumVisualizer[0] autoFrequencyAxis true
par TimeSyncNetwork.visualizer.mediumVisualizer[0] signalMinFrequency "inf Hz"
attr unit Hz
par TimeSyncNetwork.visualizer.mediumVisualizer[0] signalMaxFrequency "-inf Hz"
attr unit Hz
par TimeSyncNetwork.visualizer.mediumVisualizer[0] displayMainPowerDensityMap false
par TimeSyncNetwork.visualizer.mediumVisualizer[0] mainPowerDensityMapPixmapDensity 1
par TimeSyncNetwork.visualizer.mediumVisualizer[0] mainPowerDensityMapMinX 0
par TimeSyncNetwork.visualizer.mediumVisualizer[0] mainPowerDensityMapMaxX "nan "
par TimeSyncNetwork.visualizer.mediumVisualizer[0] mainPowerDensityMapMinY 0
par TimeSyncNetwork.visualizer.mediumVisualizer[0] mainPowerDensityMapMaxY "nan "
par TimeSyncNetwork.visualizer.mediumVisualizer[0] mainPowerDensityMapZ 0
par TimeSyncNetwork.visualizer.mediumVisualizer[0] mainPowerDensityMapFigureXTickCount 3
par TimeSyncNetwork.visualizer.mediumVisualizer[0] mainPowerDensityMapFigureYTickCount 3
par TimeSyncNetwork.visualizer.mediumVisualizer[0] displayPowerDensityMaps false
par TimeSyncNetwork.visualizer.mediumVisualizer[0] powerDensityMapMode "\"auto\""
attr enum total,signal,auto
par TimeSyncNetwork.visualizer.mediumVisualizer[0] powerDensityMapPixelMode "\"mean\""
attr enum sample,partition,mean
par TimeSyncNetwork.visualizer.mediumVisualizer[0] powerDensityMapApproximationSize 10
par TimeSyncNetwork.visualizer.mediumVisualizer[0] powerDensityMapCenterFrequency "nan Hz"
attr mutable ""
attr unit Hz
par TimeSyncNetwork.visualizer.mediumVisualizer[0] powerDensityMapBandwidth 0Hz
attr mutable ""
attr unit Hz
par TimeSyncNetwork.visualizer.mediumVisualizer[0] powerDensityMapFigureWidth 200
par TimeSyncNetwork.visualizer.mediumVisualizer[0] powerDensityMapFigureHeight 120
par TimeSyncNetwork.visualizer.mediumVisualizer[0] powerDensityMapPixmapWidth 200
par TimeSyncNetwork.visualizer.mediumVisualizer[0] powerDensityMapPixmapHeight 120
par TimeSyncNetwork.visualizer.mediumVisualizer[0] powerDensityMapZ 0
par TimeSyncNetwork.visualizer.mediumVisualizer[0] powerDensityMapFigureXTickCount 3
par TimeSyncNetwork.visualizer.mediumVisualizer[0] powerDensityMapFigureYTickCount 3
par TimeSyncNetwork.visualizer.mediumVisualizer[0] displaySpectrums false
par TimeSyncNetwork.visualizer.mediumVisualizer[0] spectrumMode "\"auto\""
attr enum total,signal,auto
par TimeSyncNetwork.visualizer.mediumVisualizer[0] spectrumFigureWidth 200
par TimeSyncNetwork.visualizer.mediumVisualizer[0] spectrumFigureHeight 120
par TimeSyncNetwork.visualizer.mediumVisualizer[0] spectrumFigureXTickCount 3
par TimeSyncNetwork.visualizer.mediumVisualizer[0] spectrumFigureYTickCount 5
par TimeSyncNetwork.visualizer.mediumVisualizer[0] spectrumFigureInterpolationSize 5
par TimeSyncNetwork.visualizer.mediumVisualizer[0] spectrumPlacementHint "\"bottomCenter\""
par TimeSyncNetwork.visualizer.mediumVisualizer[0] spectrumPlacementPriority -1
par TimeSyncNetwork.visualizer.mediumVisualizer[0] displaySpectrograms false
par TimeSyncNetwork.visualizer.mediumVisualizer[0] spectrogramMode "\"auto\""
attr enum total,signal,auto
par TimeSyncNetwork.visualizer.mediumVisualizer[0] spectrogramPixelMode "\"mean\""
attr enum sample,partition,mean
par TimeSyncNetwork.visualizer.mediumVisualizer[0] spectrogramFigureWidth 200
par TimeSyncNetwork.visualizer.mediumVisualizer[0] spectrogramFigureHeight 120
par TimeSyncNetwork.visualizer.mediumVisualizer[0] spectrogramPixmapWidth 200
par TimeSyncNetwork.visualizer.mediumVisualizer[0] spectrogramPixmapHeight 120
par TimeSyncNetwork.visualizer.mediumVisualizer[0] spectrogramFigureXTickCount 3
par TimeSyncNetwork.visualizer.mediumVisualizer[0] spectrogramFigureYTickCount 5
par TimeSyncNetwork.visualizer.mediumVisualizer[0] spectrogramPlacementHint "\"bottomCenter\""
par TimeSyncNetwork.visualizer.mediumVisualizer[0] spectrogramPlacementPriority -1
par TimeSyncNetwork.visualizer.mediumVisualizer[0] zIndex 0
par TimeSyncNetwork.visualizer.mediumVisualizer[0] signalShape "\"ring\""
attr enum ring,sphere
par TimeSyncNetwork.visualizer.mediumVisualizer[0] signalOpacity 0.5
par TimeSyncNetwork.visualizer.mediumVisualizer[0] signalRingCount 20
par TimeSyncNetwork.visualizer.mediumVisualizer[0] signalRingSize 50m
attr unit m
par TimeSyncNetwork.visualizer.mediumVisualizer[0] signalFadingDistance 50m
attr unit m
par TimeSyncNetwork.visualizer.mediumVisualizer[0] signalFadingFactor 1.2
par TimeSyncNetwork.visualizer.mediumVisualizer[0] signalWaveCount 20
par TimeSyncNetwork.visualizer.mediumVisualizer[0] signalWaveLength 50m
attr unit m
par TimeSyncNetwork.visualizer.mediumVisualizer[0] signalWaveWidth 10m
attr unit m
par TimeSyncNetwork.visualizer.mediumVisualizer[0] signalWaveFadingAnimationSpeedFactor 1
par TimeSyncNetwork.visualizer.mediumVisualizer[0] displayCommunicationHeat false
par TimeSyncNetwork.visualizer.obstacleLossVisualizer[0] typename "\"inet.visualizer.canvas.physicallayer.TracingObstacleLossCanvasVisualizer\""
par TimeSyncNetwork.visualizer.obstacleLossVisualizer[0] visualizationTargetModule "\"^.^\""
par TimeSyncNetwork.visualizer.obstacleLossVisualizer[0] visualizationSubjectModule "\"^.^\""
par TimeSyncNetwork.visualizer.obstacleLossVisualizer[0] tags "\"\""
par TimeSyncNetwork.visualizer.obstacleLossVisualizer[0] displayIntersections false
par TimeSyncNetwork.visualizer.obstacleLossVisualizer[0] intersectionLineColor "\"red\""
par TimeSyncNetwork.visualizer.obstacleLossVisualizer[0] intersectionLineStyle "\"solid\""
par TimeSyncNetwork.visualizer.obstacleLossVisualizer[0] intersectionLineWidth 1
par TimeSyncNetwork.visualizer.obstacleLossVisualizer[0] displayFaceNormalVectors false
par TimeSyncNetwork.visualizer.obstacleLossVisualizer[0] faceNormalLineColor "\"grey\""
par TimeSyncNetwork.visualizer.obstacleLossVisualizer[0] faceNormalLineStyle "\"solid\""
par TimeSyncNetwork.visualizer.obstacleLossVisualizer[0] faceNormalLineWidth 1
par TimeSyncNetwork.visualizer.obstacleLossVisualizer[0] fadeOutMode "\"realTime\""
attr enum realTime,animationTime,simulationTime
par TimeSyncNetwork.visualizer.obstacleLossVisualizer[0] fadeOutTime 1s
attr unit s
par TimeSyncNetwork.visualizer.obstacleLossVisualizer[0] fadeOutAnimationSpeed 0
par TimeSyncNetwork.visualizer.obstacleLossVisualizer[0] zIndex 0
par TimeSyncNetwork.visualizer.packetDropVisualizer[0] typename "\"inet.visualizer.canvas.common.PacketDropCanvasVisualizer\""
par TimeSyncNetwork.visualizer.packetDropVisualizer[0] visualizationTargetModule "\"^.^\""
par TimeSyncNetwork.visualizer.packetDropVisualizer[0] visualizationSubjectModule "\"^.^\""
par TimeSyncNetwork.visualizer.packetDropVisualizer[0] tags "\"\""
par TimeSyncNetwork.visualizer.packetDropVisualizer[0] displayPacketDrops false
par TimeSyncNetwork.visualizer.packetDropVisualizer[0] nodeFilter "\"*\""
attr mutable ""
par TimeSyncNetwork.visualizer.packetDropVisualizer[0] interfaceFilter "\"*\""
attr mutable ""
par TimeSyncNetwork.visualizer.packetDropVisualizer[0] packetFilter "(omnetpp::cValueHolder)holder: \"*\""
attr mutable ""
par TimeSyncNetwork.visualizer.packetDropVisualizer[0] detailsFilter "\"*\""
attr mutable ""
par TimeSyncNetwork.visualizer.packetDropVisualizer[0] icon "\"msg/packet_s\""
par TimeSyncNetwork.visualizer.packetDropVisualizer[0] iconTintAmount 1
par TimeSyncNetwork.visualizer.packetDropVisualizer[0] iconTintColor "\"dark\""
par TimeSyncNetwork.visualizer.packetDropVisualizer[0] labelFormat "\"%n\""
attr mutable ""
par TimeSyncNetwork.visualizer.packetDropVisualizer[0] labelFont "\"<default>\""
par TimeSyncNetwork.visualizer.packetDropVisualizer[0] labelColor "\"black\""
par TimeSyncNetwork.visualizer.packetDropVisualizer[0] fadeOutMode "\"realTime\""
attr enum realTime,animationTime,simulationTime
par TimeSyncNetwork.visualizer.packetDropVisualizer[0] fadeOutTime 1s
attr unit s
par TimeSyncNetwork.visualizer.packetDropVisualizer[0] fadeOutAnimationSpeed 0
par TimeSyncNetwork.visualizer.packetDropVisualizer[0] zIndex 10
par TimeSyncNetwork.visualizer.packetDropVisualizer[0] dx 32
par TimeSyncNetwork.visualizer.packetDropVisualizer[0] dy 64
par TimeSyncNetwork.visualizer.queueVisualizer[0] typename "\"inet.visualizer.canvas.common.QueueCanvasVisualizer\""
par TimeSyncNetwork.visualizer.queueVisualizer[0] visualizationTargetModule "\"^.^\""
par TimeSyncNetwork.visualizer.queueVisualizer[0] visualizationSubjectModule "\"^.^\""
par TimeSyncNetwork.visualizer.queueVisualizer[0] tags "\"\""
par TimeSyncNetwork.visualizer.queueVisualizer[0] networkNodeVisualizerModule "\"TimeSyncNetwork.visualizer.networkNodeVisualizer[0]\""
par TimeSyncNetwork.visualizer.queueVisualizer[0] displayQueues false
par TimeSyncNetwork.visualizer.queueVisualizer[0] queueFilter "\"**\""
par TimeSyncNetwork.visualizer.queueVisualizer[0] color "\"blue\""
par TimeSyncNetwork.visualizer.queueVisualizer[0] width 8
par TimeSyncNetwork.visualizer.queueVisualizer[0] height 24
par TimeSyncNetwork.visualizer.queueVisualizer[0] spacing 2
par TimeSyncNetwork.visualizer.queueVisualizer[0] placementHint "\"right\""
par TimeSyncNetwork.visualizer.queueVisualizer[0] placementPriority 0
par TimeSyncNetwork.visualizer.queueVisualizer[0] zIndex 10
par TimeSyncNetwork.visualizer.gateScheduleVisualizer[0] typename "\"inet.visualizer.canvas.common.GateScheduleCanvasVisualizer\""
par TimeSyncNetwork.visualizer.gateScheduleVisualizer[0] visualizationTargetModule "\"^.^\""
par TimeSyncNetwork.visualizer.gateScheduleVisualizer[0] visualizationSubjectModule "\"^.^\""
par TimeSyncNetwork.visualizer.gateScheduleVisualizer[0] tags "\"\""
par TimeSyncNetwork.visualizer.gateScheduleVisualizer[0] networkNodeVisualizerModule "\"TimeSyncNetwork.visualizer.networkNodeVisualizer[0]\""
par TimeSyncNetwork.visualizer.gateScheduleVisualizer[0] displayGateSchedules false
par TimeSyncNetwork.visualizer.gateScheduleVisualizer[0] labelFormat "\"%i %D\""
par TimeSyncNetwork.visualizer.gateScheduleVisualizer[0] gateFilter "\"**\""
par TimeSyncNetwork.visualizer.gateScheduleVisualizer[0] width 100
par TimeSyncNetwork.visualizer.gateScheduleVisualizer[0] height 8
par TimeSyncNetwork.visualizer.gateScheduleVisualizer[0] spacing 2
par TimeSyncNetwork.visualizer.gateScheduleVisualizer[0] placementHint "\"right\""
par TimeSyncNetwork.visualizer.gateScheduleVisualizer[0] placementPriority 0
par TimeSyncNetwork.visualizer.gateScheduleVisualizer[0] displayDuration 0s
attr mutable ""
attr unit s
par TimeSyncNetwork.visualizer.gateScheduleVisualizer[0] currentTimePosition 50
par TimeSyncNetwork.visualizer.gateScheduleVisualizer[0] zIndex 10
par TimeSyncNetwork.visualizer.radioVisualizer[0] typename "\"inet.visualizer.canvas.physicallayer.RadioCanvasVisualizer\""
par TimeSyncNetwork.visualizer.radioVisualizer[0] visualizationTargetModule "\"^.^\""
par TimeSyncNetwork.visualizer.radioVisualizer[0] visualizationSubjectModule "\"^.^\""
par TimeSyncNetwork.visualizer.radioVisualizer[0] tags "\"\""
par TimeSyncNetwork.visualizer.radioVisualizer[0] networkNodeVisualizerModule "\"TimeSyncNetwork.visualizer.networkNodeVisualizer[0]\""
par TimeSyncNetwork.visualizer.radioVisualizer[0] displayRadios false
par TimeSyncNetwork.visualizer.radioVisualizer[0] displayRadioMode true
par TimeSyncNetwork.visualizer.radioVisualizer[0] displayReceptionState true
par TimeSyncNetwork.visualizer.radioVisualizer[0] displayTransmissionState true
par TimeSyncNetwork.visualizer.radioVisualizer[0] displayAntennaLobes false
par TimeSyncNetwork.visualizer.radioVisualizer[0] radioFilter "\"**\""
attr mutable ""
par TimeSyncNetwork.visualizer.radioVisualizer[0] radioModeImages "\"block/process_vs block/timer_vs block/wrx_vs block/wtx_vs block/wrxtx_vs block/cogwheel_vs\""
par TimeSyncNetwork.visualizer.radioVisualizer[0] receptionStateImages "\"- - misc/receiving misc/receiving\""
par TimeSyncNetwork.visualizer.radioVisualizer[0] transmissionStateImages "\"- - misc/transmitting\""
par TimeSyncNetwork.visualizer.radioVisualizer[0] width 16
par TimeSyncNetwork.visualizer.radioVisualizer[0] height 16
par TimeSyncNetwork.visualizer.radioVisualizer[0] placementHint "\"bottomRight\""
par TimeSyncNetwork.visualizer.radioVisualizer[0] placementPriority 0
par TimeSyncNetwork.visualizer.radioVisualizer[0] antennaLobeNormalize false
par TimeSyncNetwork.visualizer.radioVisualizer[0] antennaLobeRelativeLabels false
par TimeSyncNetwork.visualizer.radioVisualizer[0] antennaLobePlaneGlobal true
par TimeSyncNetwork.visualizer.radioVisualizer[0] antennaLobePlane "\"view\""
attr enum view,xy,xz,yz
par TimeSyncNetwork.visualizer.radioVisualizer[0] antennaLobeMode "\"logarithmic\""
attr enum logarithmic,linear
par TimeSyncNetwork.visualizer.radioVisualizer[0] antennaLobeLogarithmicBase 10
par TimeSyncNetwork.visualizer.radioVisualizer[0] antennaLobeLogarithmicScale 100
par TimeSyncNetwork.visualizer.radioVisualizer[0] antennaLobeRadius 100
par TimeSyncNetwork.visualizer.radioVisualizer[0] antennaLobeStep 10deg
attr unit deg
par TimeSyncNetwork.visualizer.radioVisualizer[0] antennaLobeOpacity 0.25
par TimeSyncNetwork.visualizer.radioVisualizer[0] antennaLobeLineSmooth true
par TimeSyncNetwork.visualizer.radioVisualizer[0] antennaLobeLineColor "\"black\""
par TimeSyncNetwork.visualizer.radioVisualizer[0] antennaLobeLineStyle "\"solid\""
par TimeSyncNetwork.visualizer.radioVisualizer[0] antennaLobeLineWidth 1
par TimeSyncNetwork.visualizer.radioVisualizer[0] antennaLobeFillColor "\"white\""
par TimeSyncNetwork.visualizer.radioVisualizer[0] zIndex 10
par TimeSyncNetwork.visualizer.physicalLinkVisualizer[0] typename "\"inet.visualizer.canvas.physicallayer.PhysicalLinkCanvasVisualizer\""
par TimeSyncNetwork.visualizer.physicalLinkVisualizer[0] visualizationTargetModule "\"^.^\""
par TimeSyncNetwork.visualizer.physicalLinkVisualizer[0] visualizationSubjectModule "\"^.^\""
par TimeSyncNetwork.visualizer.physicalLinkVisualizer[0] tags "\"\""
par TimeSyncNetwork.visualizer.physicalLinkVisualizer[0] displayLinks false
par TimeSyncNetwork.visualizer.physicalLinkVisualizer[0] activityLevel "\"service\""
attr enum service,peer,protocol
par TimeSyncNetwork.visualizer.physicalLinkVisualizer[0] nodeFilter "\"*\""
attr mutable ""
par TimeSyncNetwork.visualizer.physicalLinkVisualizer[0] interfaceFilter "\"*\""
attr mutable ""
par TimeSyncNetwork.visualizer.physicalLinkVisualizer[0] packetFilter "(omnetpp::cValueHolder)holder: \"*\""
attr mutable ""
par TimeSyncNetwork.visualizer.physicalLinkVisualizer[0] lineColor "\"olive\""
par TimeSyncNetwork.visualizer.physicalLinkVisualizer[0] lineStyle "\"dotted\""
par TimeSyncNetwork.visualizer.physicalLinkVisualizer[0] lineWidth 3
par TimeSyncNetwork.visualizer.physicalLinkVisualizer[0] lineShift 16
par TimeSyncNetwork.visualizer.physicalLinkVisualizer[0] lineShiftMode "\"normal\""
par TimeSyncNetwork.visualizer.physicalLinkVisualizer[0] lineContactSpacing 3
par TimeSyncNetwork.visualizer.physicalLinkVisualizer[0] lineContactMode "\"rectangular\""
attr enum circular,rectangular
par TimeSyncNetwork.visualizer.physicalLinkVisualizer[0] labelFormat "\"%n\""
par TimeSyncNetwork.visualizer.physicalLinkVisualizer[0] labelFont "\"<default>, 8px\""
par TimeSyncNetwork.visualizer.physicalLinkVisualizer[0] labelColor "\"olive\""
par TimeSyncNetwork.visualizer.physicalLinkVisualizer[0] fadeOutMode "\"realTime\""
attr enum realTime,animationTime,simulationTime
par TimeSyncNetwork.visualizer.physicalLinkVisualizer[0] fadeOutTime 1s
attr unit s
par TimeSyncNetwork.visualizer.physicalLinkVisualizer[0] fadeOutAnimationSpeed 0
par TimeSyncNetwork.visualizer.physicalLinkVisualizer[0] holdAnimationTime 0s
attr unit s
par TimeSyncNetwork.visualizer.physicalLinkVisualizer[0] zIndex 1
par TimeSyncNetwork.visualizer.interfaceTableVisualizer[0] typename "\"inet.visualizer.canvas.linklayer.InterfaceTableCanvasVisualizer\""
par TimeSyncNetwork.visualizer.interfaceTableVisualizer[0] visualizationTargetModule "\"^.^\""
par TimeSyncNetwork.visualizer.interfaceTableVisualizer[0] visualizationSubjectModule "\"^.^\""
par TimeSyncNetwork.visualizer.interfaceTableVisualizer[0] tags "\"\""
par TimeSyncNetwork.visualizer.interfaceTableVisualizer[0] networkNodeVisualizerModule "\"TimeSyncNetwork.visualizer.networkNodeVisualizer[0]\""
par TimeSyncNetwork.visualizer.interfaceTableVisualizer[0] displayInterfaceTables false
par TimeSyncNetwork.visualizer.interfaceTableVisualizer[0] displayWiredInterfacesAtConnections true
par TimeSyncNetwork.visualizer.interfaceTableVisualizer[0] displayBackground false
par TimeSyncNetwork.visualizer.interfaceTableVisualizer[0] nodeFilter "\"*\""
attr mutable ""
par TimeSyncNetwork.visualizer.interfaceTableVisualizer[0] interfaceFilter "\"not(lo*)\""
attr mutable ""
par TimeSyncNetwork.visualizer.interfaceTableVisualizer[0] format "\"%N %\\\\%a%/%l\""
attr mutable ""
par TimeSyncNetwork.visualizer.interfaceTableVisualizer[0] placementHint "\"top\""
par TimeSyncNetwork.visualizer.interfaceTableVisualizer[0] placementPriority 0
par TimeSyncNetwork.visualizer.interfaceTableVisualizer[0] font "\"<default>\""
par TimeSyncNetwork.visualizer.interfaceTableVisualizer[0] textColor "\"#005030\""
par TimeSyncNetwork.visualizer.interfaceTableVisualizer[0] backgroundColor "\"white\""
par TimeSyncNetwork.visualizer.interfaceTableVisualizer[0] opacity 1
par TimeSyncNetwork.visualizer.interfaceTableVisualizer[0] zIndex 10
par TimeSyncNetwork.visualizer.dataLinkVisualizer[0] typename "\"inet.visualizer.canvas.linklayer.DataLinkCanvasVisualizer\""
par TimeSyncNetwork.visualizer.dataLinkVisualizer[0] visualizationTargetModule "\"^.^\""
par TimeSyncNetwork.visualizer.dataLinkVisualizer[0] visualizationSubjectModule "\"^.^\""
par TimeSyncNetwork.visualizer.dataLinkVisualizer[0] tags "\"\""
par TimeSyncNetwork.visualizer.dataLinkVisualizer[0] displayLinks true
par TimeSyncNetwork.visualizer.dataLinkVisualizer[0] activityLevel "\"protocol\""
attr enum service,peer,protocol
par TimeSyncNetwork.visualizer.dataLinkVisualizer[0] nodeFilter "\"*\""
attr mutable ""
par TimeSyncNetwork.visualizer.dataLinkVisualizer[0] interfaceFilter "\"*\""
attr mutable ""
par TimeSyncNetwork.visualizer.dataLinkVisualizer[0] packetFilter "(omnetpp::cValueHolder)holder: \"GptpSync\""
attr mutable ""
par TimeSyncNetwork.visualizer.dataLinkVisualizer[0] lineColor "\"blue2\""
par TimeSyncNetwork.visualizer.dataLinkVisualizer[0] lineStyle "\"solid\""
par TimeSyncNetwork.visualizer.dataLinkVisualizer[0] lineWidth 3
par TimeSyncNetwork.visualizer.dataLinkVisualizer[0] lineShift 16
par TimeSyncNetwork.visualizer.dataLinkVisualizer[0] lineShiftMode "\"normal\""
par TimeSyncNetwork.visualizer.dataLinkVisualizer[0] lineContactSpacing 3
par TimeSyncNetwork.visualizer.dataLinkVisualizer[0] lineContactMode "\"rectangular\""
attr enum circular,rectangular
par TimeSyncNetwork.visualizer.dataLinkVisualizer[0] labelFormat "\"%n\""
par TimeSyncNetwork.visualizer.dataLinkVisualizer[0] labelFont "\"<default>, 8px\""
par TimeSyncNetwork.visualizer.dataLinkVisualizer[0] labelColor "\"darkcyan\""
par TimeSyncNetwork.visualizer.dataLinkVisualizer[0] fadeOutMode "\"realTime\""
attr enum realTime,animationTime,simulationTime
par TimeSyncNetwork.visualizer.dataLinkVisualizer[0] fadeOutTime 1s
attr unit s
par TimeSyncNetwork.visualizer.dataLinkVisualizer[0] fadeOutAnimationSpeed 0
par TimeSyncNetwork.visualizer.dataLinkVisualizer[0] holdAnimationTime 0s
attr unit s
par TimeSyncNetwork.visualizer.dataLinkVisualizer[0] zIndex 2
par TimeSyncNetwork.visualizer.linkBreakVisualizer[0] typename "\"inet.visualizer.canvas.linklayer.LinkBreakCanvasVisualizer\""
par TimeSyncNetwork.visualizer.linkBreakVisualizer[0] visualizationTargetModule "\"^.^\""
par TimeSyncNetwork.visualizer.linkBreakVisualizer[0] visualizationSubjectModule "\"^.^\""
par TimeSyncNetwork.visualizer.linkBreakVisualizer[0] tags "\"\""
par TimeSyncNetwork.visualizer.linkBreakVisualizer[0] displayLinkBreaks false
par TimeSyncNetwork.visualizer.linkBreakVisualizer[0] nodeFilter "\"*\""
attr mutable ""
par TimeSyncNetwork.visualizer.linkBreakVisualizer[0] interfaceFilter "\"*\""
attr mutable ""
par TimeSyncNetwork.visualizer.linkBreakVisualizer[0] packetFilter "(omnetpp::cValueHolder)holder: \"*\""
attr mutable ""
par TimeSyncNetwork.visualizer.linkBreakVisualizer[0] icon "\"status/stop\""
par TimeSyncNetwork.visualizer.linkBreakVisualizer[0] iconTintAmount 0
par TimeSyncNetwork.visualizer.linkBreakVisualizer[0] iconTintColor "\"\""
par TimeSyncNetwork.visualizer.linkBreakVisualizer[0] fadeOutMode "\"realTime\""
attr enum realTime,animationTime,simulationTime
par TimeSyncNetwork.visualizer.linkBreakVisualizer[0] fadeOutTime 1s
attr unit s
par TimeSyncNetwork.visualizer.linkBreakVisualizer[0] fadeOutAnimationSpeed 0
par TimeSyncNetwork.visualizer.linkBreakVisualizer[0] zIndex 2
par TimeSyncNetwork.visualizer.ieee80211Visualizer[0] typename "\"inet.visualizer.canvas.linklayer.Ieee80211CanvasVisualizer\""
par TimeSyncNetwork.visualizer.ieee80211Visualizer[0] visualizationTargetModule "\"^.^\""
par TimeSyncNetwork.visualizer.ieee80211Visualizer[0] visualizationSubjectModule "\"^.^\""
par TimeSyncNetwork.visualizer.ieee80211Visualizer[0] tags "\"\""
par TimeSyncNetwork.visualizer.ieee80211Visualizer[0] networkNodeVisualizerModule "\"TimeSyncNetwork.visualizer.networkNodeVisualizer[0]\""
par TimeSyncNetwork.visualizer.ieee80211Visualizer[0] displayAssociations false
par TimeSyncNetwork.visualizer.ieee80211Visualizer[0] nodeFilter "\"*\""
attr mutable ""
par TimeSyncNetwork.visualizer.ieee80211Visualizer[0] interfaceFilter "\"*\""
attr mutable ""
par TimeSyncNetwork.visualizer.ieee80211Visualizer[0] minPower -85dBm
attr unit dBm
par TimeSyncNetwork.visualizer.ieee80211Visualizer[0] maxPower -50dBm
attr unit dBm
par TimeSyncNetwork.visualizer.ieee80211Visualizer[0] icons "\"misc/signal_power_0 misc/signal_power_1 misc/signal_power_2 misc/signal_power_3\""
par TimeSyncNetwork.visualizer.ieee80211Visualizer[0] iconColor "\"dark\""
attr enum light,dark
par TimeSyncNetwork.visualizer.ieee80211Visualizer[0] labelFont "\"<default>\""
par TimeSyncNetwork.visualizer.ieee80211Visualizer[0] labelColor "\"black\""
par TimeSyncNetwork.visualizer.ieee80211Visualizer[0] placementHint "\"top\""
par TimeSyncNetwork.visualizer.ieee80211Visualizer[0] placementPriority 0
par TimeSyncNetwork.visualizer.ieee80211Visualizer[0] zIndex 2
par TimeSyncNetwork.visualizer.networkRouteVisualizer[0] typename "\"inet.visualizer.canvas.networklayer.NetworkRouteCanvasVisualizer\""
par TimeSyncNetwork.visualizer.networkRouteVisualizer[0] visualizationTargetModule "\"^.^\""
par TimeSyncNetwork.visualizer.networkRouteVisualizer[0] visualizationSubjectModule "\"^.^\""
par TimeSyncNetwork.visualizer.networkRouteVisualizer[0] tags "\"\""
par TimeSyncNetwork.visualizer.networkRouteVisualizer[0] displayRoutes false
par TimeSyncNetwork.visualizer.networkRouteVisualizer[0] startPathSignal "\"packetReceivedFromUpper\""
par TimeSyncNetwork.visualizer.networkRouteVisualizer[0] extendPathSignal "\"packetReceivedFromLower\""
par TimeSyncNetwork.visualizer.networkRouteVisualizer[0] endPathSignal "\"packetSentToUpper\""
par TimeSyncNetwork.visualizer.networkRouteVisualizer[0] nodeFilter "\"*\""
attr mutable ""
par TimeSyncNetwork.visualizer.networkRouteVisualizer[0] packetFilter "(omnetpp::cValueHolder)holder: \"*\""
attr mutable ""
par TimeSyncNetwork.visualizer.networkRouteVisualizer[0] lineColor "\"dark\""
attr enum light,dark
par TimeSyncNetwork.visualizer.networkRouteVisualizer[0] lineStyle "\"solid\""
par TimeSyncNetwork.visualizer.networkRouteVisualizer[0] lineWidth 3
par TimeSyncNetwork.visualizer.networkRouteVisualizer[0] lineSmooth false
par TimeSyncNetwork.visualizer.networkRouteVisualizer[0] lineShift 16
par TimeSyncNetwork.visualizer.networkRouteVisualizer[0] lineShiftMode "\"normal\""
par TimeSyncNetwork.visualizer.networkRouteVisualizer[0] lineContactSpacing 3
par TimeSyncNetwork.visualizer.networkRouteVisualizer[0] lineContactMode "\"rectangular\""
attr enum circular,rectangular
par TimeSyncNetwork.visualizer.networkRouteVisualizer[0] labelFormat "\"%n\""
par TimeSyncNetwork.visualizer.networkRouteVisualizer[0] labelFont "\"<default>, 8px\""
par TimeSyncNetwork.visualizer.networkRouteVisualizer[0] labelColor "\"\""
par TimeSyncNetwork.visualizer.networkRouteVisualizer[0] fadeOutMode "\"realTime\""
attr enum realTime,animationTime,simulationTime
par TimeSyncNetwork.visualizer.networkRouteVisualizer[0] fadeOutTime 1s
attr unit s
par TimeSyncNetwork.visualizer.networkRouteVisualizer[0] fadeOutAnimationSpeed 0
par TimeSyncNetwork.visualizer.networkRouteVisualizer[0] zIndex 3
par TimeSyncNetwork.visualizer.routingTableVisualizer[0] typename "\"inet.visualizer.canvas.networklayer.RoutingTableCanvasVisualizer\""
par TimeSyncNetwork.visualizer.routingTableVisualizer[0] visualizationTargetModule "\"^.^\""
par TimeSyncNetwork.visualizer.routingTableVisualizer[0] visualizationSubjectModule "\"^.^\""
par TimeSyncNetwork.visualizer.routingTableVisualizer[0] tags "\"\""
par TimeSyncNetwork.visualizer.routingTableVisualizer[0] displayRoutingTables false
par TimeSyncNetwork.visualizer.routingTableVisualizer[0] displayRoutesIndividually true
par TimeSyncNetwork.visualizer.routingTableVisualizer[0] displayLabels true
par TimeSyncNetwork.visualizer.routingTableVisualizer[0] destinationFilter "\"*\""
attr mutable ""
par TimeSyncNetwork.visualizer.routingTableVisualizer[0] nodeFilter "\"*\""
attr mutable ""
par TimeSyncNetwork.visualizer.routingTableVisualizer[0] lineColor "\"black\""
par TimeSyncNetwork.visualizer.routingTableVisualizer[0] lineStyle "\"solid\""
par TimeSyncNetwork.visualizer.routingTableVisualizer[0] lineWidth 2
par TimeSyncNetwork.visualizer.routingTableVisualizer[0] lineShift 16
par TimeSyncNetwork.visualizer.routingTableVisualizer[0] lineShiftMode "\"normal\""
par TimeSyncNetwork.visualizer.routingTableVisualizer[0] lineContactSpacing 3
par TimeSyncNetwork.visualizer.routingTableVisualizer[0] lineContactMode "\"rectangular\""
attr enum circular,rectangular
par TimeSyncNetwork.visualizer.routingTableVisualizer[0] labelFormat "\"%d/%m -> %g (%n)\""
attr mutable ""
par TimeSyncNetwork.visualizer.routingTableVisualizer[0] labelFont "\"<default>, 8px\""
par TimeSyncNetwork.visualizer.routingTableVisualizer[0] labelColor "\"black\""
par TimeSyncNetwork.visualizer.routingTableVisualizer[0] zIndex 0
par TimeSyncNetwork.visualizer.transportRouteVisualizer[0] typename "\"inet.visualizer.canvas.transportlayer.TransportRouteCanvasVisualizer\""
par TimeSyncNetwork.visualizer.transportRouteVisualizer[0] visualizationTargetModule "\"^.^\""
par TimeSyncNetwork.visualizer.transportRouteVisualizer[0] visualizationSubjectModule "\"^.^\""
par TimeSyncNetwork.visualizer.transportRouteVisualizer[0] tags "\"\""
par TimeSyncNetwork.visualizer.transportRouteVisualizer[0] displayRoutes false
par TimeSyncNetwork.visualizer.transportRouteVisualizer[0] startPathSignal "\"packetReceivedFromUpper\""
par TimeSyncNetwork.visualizer.transportRouteVisualizer[0] extendPathSignal "\"packetReceivedFromLower\""
par TimeSyncNetwork.visualizer.transportRouteVisualizer[0] endPathSignal "\"packetSentToUpper\""
par TimeSyncNetwork.visualizer.transportRouteVisualizer[0] nodeFilter "\"*\""
attr mutable ""
par TimeSyncNetwork.visualizer.transportRouteVisualizer[0] packetFilter "(omnetpp::cValueHolder)holder: \"*\""
attr mutable ""
par TimeSyncNetwork.visualizer.transportRouteVisualizer[0] lineColor "\"dark\""
attr enum light,dark
par TimeSyncNetwork.visualizer.transportRouteVisualizer[0] lineStyle "\"solid\""
par TimeSyncNetwork.visualizer.transportRouteVisualizer[0] lineWidth 3
par TimeSyncNetwork.visualizer.transportRouteVisualizer[0] lineSmooth false
par TimeSyncNetwork.visualizer.transportRouteVisualizer[0] lineShift 16
par TimeSyncNetwork.visualizer.transportRouteVisualizer[0] lineShiftMode "\"normal\""
par TimeSyncNetwork.visualizer.transportRouteVisualizer[0] lineContactSpacing 3
par TimeSyncNetwork.visualizer.transportRouteVisualizer[0] lineContactMode "\"rectangular\""
attr enum circular,rectangular
par TimeSyncNetwork.visualizer.transportRouteVisualizer[0] labelFormat "\"%n\""
par TimeSyncNetwork.visualizer.transportRouteVisualizer[0] labelFont "\"<default>, 8px\""
par TimeSyncNetwork.visualizer.transportRouteVisualizer[0] labelColor "\"\""
par TimeSyncNetwork.visualizer.transportRouteVisualizer[0] fadeOutMode "\"realTime\""
attr enum realTime,animationTime,simulationTime
par TimeSyncNetwork.visualizer.transportRouteVisualizer[0] fadeOutTime 1s
attr unit s
par TimeSyncNetwork.visualizer.transportRouteVisualizer[0] fadeOutAnimationSpeed 0
par TimeSyncNetwork.visualizer.transportRouteVisualizer[0] zIndex 4
par TimeSyncNetwork.visualizer.transportConnectionVisualizer[0] typename "\"inet.visualizer.canvas.transportlayer.TransportConnectionCanvasVisualizer\""
par TimeSyncNetwork.visualizer.transportConnectionVisualizer[0] visualizationTargetModule "\"^.^\""
par TimeSyncNetwork.visualizer.transportConnectionVisualizer[0] visualizationSubjectModule "\"^.^\""
par TimeSyncNetwork.visualizer.transportConnectionVisualizer[0] tags "\"\""
par TimeSyncNetwork.visualizer.transportConnectionVisualizer[0] networkNodeVisualizerModule "\"TimeSyncNetwork.visualizer.networkNodeVisualizer[0]\""
par TimeSyncNetwork.visualizer.transportConnectionVisualizer[0] displayTransportConnections false
par TimeSyncNetwork.visualizer.transportConnectionVisualizer[0] sourceNodeFilter "\"*\""
attr mutable ""
par TimeSyncNetwork.visualizer.transportConnectionVisualizer[0] sourcePortFilter "\"*\""
attr mutable ""
par TimeSyncNetwork.visualizer.transportConnectionVisualizer[0] destinationNodeFilter "\"*\""
attr mutable ""
par TimeSyncNetwork.visualizer.transportConnectionVisualizer[0] destinationPortFilter "\"*\""
attr mutable ""
par TimeSyncNetwork.visualizer.transportConnectionVisualizer[0] icon "\"misc/marker_s\""
par TimeSyncNetwork.visualizer.transportConnectionVisualizer[0] iconColor "\"dark\""
attr enum light,dark
par TimeSyncNetwork.visualizer.transportConnectionVisualizer[0] labelFont "\"<default>\""
par TimeSyncNetwork.visualizer.transportConnectionVisualizer[0] labelColor "\"black\""
par TimeSyncNetwork.visualizer.transportConnectionVisualizer[0] placementHint "\"top\""
par TimeSyncNetwork.visualizer.transportConnectionVisualizer[0] placementPriority 0
par TimeSyncNetwork.visualizer.transportConnectionVisualizer[0] zIndex 4
par TimeSyncNetwork.visualizer.failureProtectionConfigurationVisualizer[0] typename "\"inet.visualizer.canvas.configurator.FailureProtectionConfigurationCanvasVisualizer\""
par TimeSyncNetwork.visualizer.failureProtectionConfigurationVisualizer[0] visualizationTargetModule "\"^.^\""
par TimeSyncNetwork.visualizer.failureProtectionConfigurationVisualizer[0] visualizationSubjectModule "\"^.^\""
par TimeSyncNetwork.visualizer.failureProtectionConfigurationVisualizer[0] tags "\"\""
par TimeSyncNetwork.visualizer.failureProtectionConfigurationVisualizer[0] displayTrees false
par TimeSyncNetwork.visualizer.failureProtectionConfigurationVisualizer[0] lineColor "\"dark\""
attr enum light,dark
par TimeSyncNetwork.visualizer.failureProtectionConfigurationVisualizer[0] lineStyle "\"solid\""
par TimeSyncNetwork.visualizer.failureProtectionConfigurationVisualizer[0] lineWidth 3
par TimeSyncNetwork.visualizer.failureProtectionConfigurationVisualizer[0] lineSmooth false
par TimeSyncNetwork.visualizer.failureProtectionConfigurationVisualizer[0] lineShift 16
par TimeSyncNetwork.visualizer.failureProtectionConfigurationVisualizer[0] lineShiftMode "\"normal\""
par TimeSyncNetwork.visualizer.failureProtectionConfigurationVisualizer[0] lineContactSpacing 3
par TimeSyncNetwork.visualizer.failureProtectionConfigurationVisualizer[0] lineContactMode "\"rectangular\""
attr enum circular,rectangular
par TimeSyncNetwork.visualizer.failureProtectionConfigurationVisualizer[0] failureProtectionConfiguratorModule "\"failureProtectionConfigurator\""
par TimeSyncNetwork.visualizer.failureProtectionConfigurationVisualizer[0] streamFilter "\"*\""
par TimeSyncNetwork.visualizer.failureProtectionConfigurationVisualizer[0] zIndex 3
par TimeSyncNetwork.visualizer.streamRedundancyConfigurationVisualizer[0] typename "\"inet.visualizer.canvas.configurator.StreamRedundancyConfigurationCanvasVisualizer\""
par TimeSyncNetwork.visualizer.streamRedundancyConfigurationVisualizer[0] visualizationTargetModule "\"^.^\""
par TimeSyncNetwork.visualizer.streamRedundancyConfigurationVisualizer[0] visualizationSubjectModule "\"^.^\""
par TimeSyncNetwork.visualizer.streamRedundancyConfigurationVisualizer[0] tags "\"\""
par TimeSyncNetwork.visualizer.streamRedundancyConfigurationVisualizer[0] displayTrees false
par TimeSyncNetwork.visualizer.streamRedundancyConfigurationVisualizer[0] lineColor "\"dark\""
attr enum light,dark
par TimeSyncNetwork.visualizer.streamRedundancyConfigurationVisualizer[0] lineStyle "\"solid\""
par TimeSyncNetwork.visualizer.streamRedundancyConfigurationVisualizer[0] lineWidth 3
par TimeSyncNetwork.visualizer.streamRedundancyConfigurationVisualizer[0] lineSmooth false
par TimeSyncNetwork.visualizer.streamRedundancyConfigurationVisualizer[0] lineShift 16
par TimeSyncNetwork.visualizer.streamRedundancyConfigurationVisualizer[0] lineShiftMode "\"normal\""
par TimeSyncNetwork.visualizer.streamRedundancyConfigurationVisualizer[0] lineContactSpacing 3
par TimeSyncNetwork.visualizer.streamRedundancyConfigurationVisualizer[0] lineContactMode "\"rectangular\""
attr enum circular,rectangular
par TimeSyncNetwork.visualizer.streamRedundancyConfigurationVisualizer[0] streamRedundancyConfiguratorModule "\"streamRedundancyConfigurator\""
par TimeSyncNetwork.visualizer.streamRedundancyConfigurationVisualizer[0] streamFilter "\"*\""
par TimeSyncNetwork.visualizer.streamRedundancyConfigurationVisualizer[0] zIndex 3
par TimeSyncNetwork.visualizer typename "\"inet.visualizer.canvas.integrated.IntegratedMultiCanvasVisualizer\""
par TimeSyncNetwork.visualizer numSceneVisualizers 1
par TimeSyncNetwork.visualizer numPhysicalEnvironmentVisualizers 1
par TimeSyncNetwork.visualizer numNetworkNodeVisualizers 1
par TimeSyncNetwork.visualizer numNetworkConnectionVisualizers 1
par TimeSyncNetwork.visualizer numMobilityVisualizers 1
par TimeSyncNetwork.visualizer numStatisticVisualizers 1
par TimeSyncNetwork.visualizer numInfoVisualizers 3
par TimeSyncNetwork.visualizer numEnergyStorageVisualizers 1
par TimeSyncNetwork.visualizer numMediumVisualizers 1
par TimeSyncNetwork.visualizer numObstacleLossVisualizers 1
par TimeSyncNetwork.visualizer numPacketDropVisualizers 1
par TimeSyncNetwork.visualizer numQueueVisualizers 1
par TimeSyncNetwork.visualizer numGateScheduleVisualizers 1
par TimeSyncNetwork.visualizer numRadioVisualizers 1
par TimeSyncNetwork.visualizer numPhysicalLinkVisualizers 1
par TimeSyncNetwork.visualizer numInterfaceTableVisualizers 1
par TimeSyncNetwork.visualizer numDataLinkVisualizers 1
par TimeSyncNetwork.visualizer numLinkBreakVisualizers 1
par TimeSyncNetwork.visualizer numIeee80211Visualizers 1
par TimeSyncNetwork.visualizer numNetworkRouteVisualizers 1
par TimeSyncNetwork.visualizer numRoutingTableVisualizers 1
par TimeSyncNetwork.visualizer numTransportRouteVisualizers 1
par TimeSyncNetwork.visualizer numTransportConnectionVisualizers 1
par TimeSyncNetwork.visualizer numFailureProtectionConfigurationVisualizers 1
par TimeSyncNetwork.visualizer numStreamRedundancyConfigurationVisualizers 1
par TimeSyncNetwork.configurator typename "\"inet.networklayer.configurator.ipv4.Ipv4NetworkConfigurator\""
par TimeSyncNetwork.configurator minLinkWeight 0.001
par TimeSyncNetwork.configurator configureIsolatedNetworksSeparatly false
par TimeSyncNetwork.configurator config "<config>...</config> at content:1"
par TimeSyncNetwork.configurator assignAddresses true
par TimeSyncNetwork.configurator assignUniqueAddresses true
par TimeSyncNetwork.configurator assignDisjunctSubnetAddresses true
par TimeSyncNetwork.configurator addStaticRoutes true
par TimeSyncNetwork.configurator addDefaultRoutes true
par TimeSyncNetwork.configurator addSubnetRoutes true
par TimeSyncNetwork.configurator addDirectRoutes true
par TimeSyncNetwork.configurator optimizeRoutes true
par TimeSyncNetwork.configurator dumpTopology false
par TimeSyncNetwork.configurator dumpLinks false
par TimeSyncNetwork.configurator dumpAddresses false
par TimeSyncNetwork.configurator dumpRoutes false
par TimeSyncNetwork.configurator dumpConfig "\"\""
par TimeSyncNetwork.macForwardingTableConfigurator typename "\"inet.linklayer.configurator.MacForwardingTableConfigurator\""
par TimeSyncNetwork.timeTransmitter.ethg$i[0].channel typename "\"ned.IdealChannel\""
par TimeSyncNetwork.timeTransmitter.eth[0].phys$o.channel typename "\"ned.IdealChannel\""
par TimeSyncNetwork.timeTransmitter.clock.oscillator typename "\"inet.clock.oscillator.RandomDriftOscillator\""
par TimeSyncNetwork.timeTransmitter.clock.oscillator displayStringTextFormat "\"%c (%n + %d)\""
par TimeSyncNetwork.timeTransmitter.clock.oscillator nominalTickLength 0s
attr unit s
par TimeSyncNetwork.timeTransmitter.clock.oscillator tickOffset 0s
attr unit s
par TimeSyncNetwork.timeTransmitter.clock.oscillator initialDriftRate 0ppm
attr unit ppm
par TimeSyncNetwork.timeTransmitter.clock.oscillator changeInterval 0.0125s
attr unit s
par TimeSyncNetwork.timeTransmitter.clock.oscillator driftRateChange "uniform(-1ppm, 1ppm)"
attr unit ppm
par TimeSyncNetwork.timeTransmitter.clock.oscillator driftRateChangeLowerLimit -100ppm
attr unit ppm
par TimeSyncNetwork.timeTransmitter.clock.oscillator driftRateChangeUpperLimit 100ppm
attr unit ppm
par TimeSyncNetwork.timeTransmitter.clock typename "\"inet.clock.model.OscillatorBasedClock\""
par TimeSyncNetwork.timeTransmitter.clock displayStringTextFormat "\"time: %T\""
par TimeSyncNetwork.timeTransmitter.clock referenceClock "\"timeTransmitter.clock\""
par TimeSyncNetwork.timeTransmitter.clock emitClockTimeInterval 0s
attr unit s
par TimeSyncNetwork.timeTransmitter.clock initialClockTime 0s
attr unit s
par TimeSyncNetwork.timeTransmitter.clock roundingMode "\"up\""
attr enum down,up,closer,none
par TimeSyncNetwork.timeTransmitter.interfaceTable typename "\"inet.networklayer.common.InterfaceTable\""
par TimeSyncNetwork.timeTransmitter.interfaceTable displayAddresses false
par TimeSyncNetwork.timeTransmitter.cb typename "\"inet.common.MessageDispatcher\""
par TimeSyncNetwork.timeTransmitter.cb displayStringTextFormat "\"processed %p pk (%l)\""
par TimeSyncNetwork.timeTransmitter.cb forwardServiceRegistration true
par TimeSyncNetwork.timeTransmitter.cb forwardProtocolRegistration true
par TimeSyncNetwork.timeTransmitter.bl typename "\"inet.common.MessageDispatcher\""
par TimeSyncNetwork.timeTransmitter.bl displayStringTextFormat "\"processed %p pk (%l)\""
par TimeSyncNetwork.timeTransmitter.bl forwardServiceRegistration true
par TimeSyncNetwork.timeTransmitter.bl forwardProtocolRegistration true
par TimeSyncNetwork.timeTransmitter.ethernet.fcsInserter.out.channel typename "\"ned.IdealChannel\""
par TimeSyncNetwork.timeTransmitter.ethernet.lowerLayerIn.channel typename "\"ned.IdealChannel\""
par TimeSyncNetwork.timeTransmitter.ethernet.upperLayerIn.channel typename "\"ned.IdealChannel\""
par TimeSyncNetwork.timeTransmitter.ethernet.macHeaderChecker.out.channel typename "\"ned.IdealChannel\""
par TimeSyncNetwork.timeTransmitter.ethernet.macHeaderInserter typename "\"inet.linklayer.ethernet.modular.EthernetMacHeaderInserter\""
par TimeSyncNetwork.timeTransmitter.ethernet.macHeaderInserter displayStringTextFormat "\"processed %p pk (%l)\""
par TimeSyncNetwork.timeTransmitter.ethernet.macHeaderInserter interfaceTableModule "\"TimeSyncNetwork.timeTransmitter.interfaceTable\""
scalar TimeSyncNetwork.timeTransmitter.ethernet.macHeaderInserter outgoingPackets:count 19
attr recordingmode count
attr source "merge(packetPushedOut, packetPulledOut)"
attr title "outgoing packets, count"
attr unit pk
scalar TimeSyncNetwork.timeTransmitter.ethernet.macHeaderInserter outgoingPacketLengths:sum 10928
attr interpolationmode none
attr recordingmode sum
attr source "packetLength(merge(packetPushedOut, packetPulledOut))"
attr title "outgoing packet lengths, sum"
attr unit b
statistic TimeSyncNetwork.timeTransmitter.ethernet.macHeaderInserter outgoingPacketLengths:histogram
field count 19
field mean 575.15789473684
field stddev 117.75363318665
field min 464
field max 720
field sum 10928
field sqrsum 6534912
attr interpolationmode none
attr recordingmode histogram
attr source "packetLength(merge(packetPushedOut, packetPulledOut))"
attr title "outgoing packet lengths"
attr unit b
bin	-inf	0
bin	400	0
bin	405	0
bin	410	0
bin	415	0
bin	420	0
bin	425	0
bin	430	0
bin	435	0
bin	440	0
bin	445	0
bin	450	0
bin	455	0
bin	460	8
bin	465	0
bin	470	0
bin	475	0
bin	480	0
bin	485	0
bin	490	0
bin	495	0
bin	500	0
bin	505	0
bin	510	0
bin	515	0
bin	520	0
bin	525	0
bin	530	0
bin	535	0
bin	540	4
bin	545	0
bin	550	0
bin	555	0
bin	560	0
bin	565	0
bin	570	0
bin	575	0
bin	580	0
bin	585	0
bin	590	0
bin	595	0
bin	600	0
bin	605	0
bin	610	0
bin	615	0
bin	620	0
bin	625	0
bin	630	0
bin	635	0
bin	640	0
bin	645	0
bin	650	0
bin	655	0
bin	660	0
bin	665	0
bin	670	0
bin	675	0
bin	680	0
bin	685	0
bin	690	0
bin	695	0
bin	700	0
bin	705	0
bin	710	0
bin	715	0
bin	720	7
bin	725	0
bin	730	0
bin	735	0
bin	740	0
bin	745	0
bin	750	0
bin	755	0
bin	760	0
bin	765	0
bin	770	0
bin	775	0
bin	780	0
bin	785	0
scalar TimeSyncNetwork.timeTransmitter.ethernet.macHeaderInserter flowOutgoingPacketLengths:sum 0
attr interpolationmode none
attr recordingmode sum
attr source "packetLength(demuxFlow(merge(packetPushedOut, packetPulledOut)))"
attr title "flow specific outgoing packet lengths, sum"
attr unit b
statistic TimeSyncNetwork.timeTransmitter.ethernet.macHeaderInserter flowOutgoingPacketLengths:histogram
field count 0
field mean -nan
field stddev nan
field min nan
field max nan
field sum 0
field sqrsum 0
attr interpolationmode none
attr recordingmode histogram
attr source "packetLength(demuxFlow(merge(packetPushedOut, packetPulledOut)))"
attr title "flow specific outgoing packet lengths"
attr unit b
bin	-inf	0
bin	0	0
bin	1	0
scalar TimeSyncNetwork.timeTransmitter.ethernet.macHeaderInserter incomingPackets:count 19
attr recordingmode count
attr source "merge(packetPushedIn, packetPulledIn)"
attr title "incoming packets, count"
attr unit pk
scalar TimeSyncNetwork.timeTransmitter.ethernet.macHeaderInserter incomingPacketLengths:sum 8800
attr interpolationmode none
attr recordingmode sum
attr source "packetLength(merge(packetPushedIn, packetPulledIn))"
attr title "incoming packet lengths, sum"
attr unit b
statistic TimeSyncNetwork.timeTransmitter.ethernet.macHeaderInserter incomingPacketLengths:histogram
field count 19
field mean 463.15789473684
field stddev 117.75363318665
field min 352
field max 608
field sum 8800
field sqrsum 4325376
attr interpolationmode none
attr recordingmode histogram
attr source "packetLength(merge(packetPushedIn, packetPulledIn))"
attr title "incoming packet lengths"
attr unit b
bin	-inf	0
bin	285	0
bin	290	0
bin	295	0
bin	300	0
bin	305	0
bin	310	0
bin	315	0
bin	320	0
bin	325	0
bin	330	0
bin	335	0
bin	340	0
bin	345	0
bin	350	8
bin	355	0
bin	360	0
bin	365	0
bin	370	0
bin	375	0
bin	380	0
bin	385	0
bin	390	0
bin	395	0
bin	400	0
bin	405	0
bin	410	0
bin	415	0
bin	420	0
bin	425	0
bin	430	4
bin	435	0
bin	440	0
bin	445	0
bin	450	0
bin	455	0
bin	460	0
bin	465	0
bin	470	0
bin	475	0
bin	480	0
bin	485	0
bin	490	0
bin	495	0
bin	500	0
bin	505	0
bin	510	0
bin	515	0
bin	520	0
bin	525	0
bin	530	0
bin	535	0
bin	540	0
bin	545	0
bin	550	0
bin	555	0
bin	560	0
bin	565	0
bin	570	0
bin	575	0
bin	580	0
bin	585	0
bin	590	0
bin	595	0
bin	600	0
bin	605	7
bin	610	0
bin	615	0
bin	620	0
bin	625	0
bin	630	0
bin	635	0
bin	640	0
bin	645	0
bin	650	0
bin	655	0
bin	660	0
bin	665	0
bin	670	0
bin	675	0
scalar TimeSyncNetwork.timeTransmitter.ethernet.macHeaderInserter flowIncomingPacketLengths:sum 0
attr interpolationmode none
attr recordingmode sum
attr source "packetLength(demuxFlow(merge(packetPushedIn, packetPulledIn)))"
attr title "flow specific incoming packet lengths, sum"
attr unit b
statistic TimeSyncNetwork.timeTransmitter.ethernet.macHeaderInserter flowIncomingPacketLengths:histogram
field count 0
field mean -nan
field stddev nan
field min nan
field max nan
field sum 0
field sqrsum 0
attr interpolationmode none
attr recordingmode histogram
attr source "packetLength(demuxFlow(merge(packetPushedIn, packetPulledIn)))"
attr title "flow specific incoming packet lengths"
attr unit b
bin	-inf	0
bin	0	0
bin	1	0
par TimeSyncNetwork.timeTransmitter.ethernet.paddingInserter typename "\"inet.protocolelement.common.PaddingInserter\""
par TimeSyncNetwork.timeTransmitter.ethernet.paddingInserter displayStringTextFormat "\"processed %p pk (%l)\""
par TimeSyncNetwork.timeTransmitter.ethernet.paddingInserter minLength 480b
attr unit b
par TimeSyncNetwork.timeTransmitter.ethernet.paddingInserter roundingLength 8b
attr unit b
par TimeSyncNetwork.timeTransmitter.ethernet.paddingInserter insertionPosition "\"back\""
attr enum front,back
scalar TimeSyncNetwork.timeTransmitter.ethernet.paddingInserter outgoingPackets:count 19
attr recordingmode count
attr source "merge(packetPushedOut, packetPulledOut)"
attr title "outgoing packets, count"
attr unit pk
scalar TimeSyncNetwork.timeTransmitter.ethernet.paddingInserter outgoingPacketLengths:sum 11056
attr interpolationmode none
attr recordingmode sum
attr source "packetLength(merge(packetPushedOut, packetPulledOut))"
attr title "outgoing packet lengths, sum"
attr unit b
statistic TimeSyncNetwork.timeTransmitter.ethernet.paddingInserter outgoingPacketLengths:histogram
field count 19
field mean 581.89473684211
field stddev 111.1345004622
field min 480
field max 720
field sum 11056
field sqrsum 6655744
attr interpolationmode none
attr recordingmode histogram
attr source "packetLength(merge(packetPushedOut, packetPulledOut))"
attr title "outgoing packet lengths"
attr unit b
bin	-inf	0
bin	420	0
bin	425	0
bin	430	0
bin	435	0
bin	440	0
bin	445	0
bin	450	0
bin	455	0
bin	460	0
bin	465	0
bin	470	0
bin	475	0
bin	480	8
bin	485	0
bin	490	0
bin	495	0
bin	500	0
bin	505	0
bin	510	0
bin	515	0
bin	520	0
bin	525	0
bin	530	0
bin	535	0
bin	540	4
bin	545	0
bin	550	0
bin	555	0
bin	560	0
bin	565	0
bin	570	0
bin	575	0
bin	580	0
bin	585	0
bin	590	0
bin	595	0
bin	600	0
bin	605	0
bin	610	0
bin	615	0
bin	620	0
bin	625	0
bin	630	0
bin	635	0
bin	640	0
bin	645	0
bin	650	0
bin	655	0
bin	660	0
bin	665	0
bin	670	0
bin	675	0
bin	680	0
bin	685	0
bin	690	0
bin	695	0
bin	700	0
bin	705	0
bin	710	0
bin	715	0
bin	720	7
bin	725	0
bin	730	0
bin	735	0
bin	740	0
bin	745	0
bin	750	0
bin	755	0
bin	760	0
bin	765	0
bin	770	0
bin	775	0
bin	780	0
scalar TimeSyncNetwork.timeTransmitter.ethernet.paddingInserter flowOutgoingPacketLengths:sum 0
attr interpolationmode none
attr recordingmode sum
attr source "packetLength(demuxFlow(merge(packetPushedOut, packetPulledOut)))"
attr title "flow specific outgoing packet lengths, sum"
attr unit b
statistic TimeSyncNetwork.timeTransmitter.ethernet.paddingInserter flowOutgoingPacketLengths:histogram
field count 0
field mean -nan
field stddev nan
field min nan
field max nan
field sum 0
field sqrsum 0
attr interpolationmode none
attr recordingmode histogram
attr source "packetLength(demuxFlow(merge(packetPushedOut, packetPulledOut)))"
attr title "flow specific outgoing packet lengths"
attr unit b
bin	-inf	0
bin	0	0
bin	1	0
scalar TimeSyncNetwork.timeTransmitter.ethernet.paddingInserter incomingPackets:count 19
attr recordingmode count
attr source "merge(packetPushedIn, packetPulledIn)"
attr title "incoming packets, count"
attr unit pk
scalar TimeSyncNetwork.timeTransmitter.ethernet.paddingInserter incomingPacketLengths:sum 10928
attr interpolationmode none
attr recordingmode sum
attr source "packetLength(merge(packetPushedIn, packetPulledIn))"
attr title "incoming packet lengths, sum"
attr unit b
statistic TimeSyncNetwork.timeTransmitter.ethernet.paddingInserter incomingPacketLengths:histogram
field count 19
field mean 575.15789473684
field stddev 117.75363318665
field min 464
field max 720
field sum 10928
field sqrsum 6534912
attr interpolationmode none
attr recordingmode histogram
attr source "packetLength(merge(packetPushedIn, packetPulledIn))"
attr title "incoming packet lengths"
attr unit b
bin	-inf	0
bin	400	0
bin	405	0
bin	410	0
bin	415	0
bin	420	0
bin	425	0
bin	430	0
bin	435	0
bin	440	0
bin	445	0
bin	450	0
bin	455	0
bin	460	8
bin	465	0
bin	470	0
bin	475	0
bin	480	0
bin	485	0
bin	490	0
bin	495	0
bin	500	0
bin	505	0
bin	510	0
bin	515	0
bin	520	0
bin	525	0
bin	530	0
bin	535	0
bin	540	4
bin	545	0
bin	550	0
bin	555	0
bin	560	0
bin	565	0
bin	570	0
bin	575	0
bin	580	0
bin	585	0
bin	590	0
bin	595	0
bin	600	0
bin	605	0
bin	610	0
bin	615	0
bin	620	0
bin	625	0
bin	630	0
bin	635	0
bin	640	0
bin	645	0
bin	650	0
bin	655	0
bin	660	0
bin	665	0
bin	670	0
bin	675	0
bin	680	0
bin	685	0
bin	690	0
bin	695	0
bin	700	0
bin	705	0
bin	710	0
bin	715	0
bin	720	7
bin	725	0
bin	730	0
bin	735	0
bin	740	0
bin	745	0
bin	750	0
bin	755	0
bin	760	0
bin	765	0
bin	770	0
bin	775	0
bin	780	0
bin	785	0
scalar TimeSyncNetwork.timeTransmitter.ethernet.paddingInserter flowIncomingPacketLengths:sum 0
attr interpolationmode none
attr recordingmode sum
attr source "packetLength(demuxFlow(merge(packetPushedIn, packetPulledIn)))"
attr title "flow specific incoming packet lengths, sum"
attr unit b
statistic TimeSyncNetwork.timeTransmitter.ethernet.paddingInserter flowIncomingPacketLengths:histogram
field count 0
field mean -nan
field stddev nan
field min nan
field max nan
field sum 0
field sqrsum 0
attr interpolationmode none
attr recordingmode histogram
attr source "packetLength(demuxFlow(merge(packetPushedIn, packetPulledIn)))"
attr title "flow specific incoming packet lengths"
attr unit b
bin	-inf	0
bin	0	0
bin	1	0
par TimeSyncNetwork.timeTransmitter.ethernet.fcsInserter typename "\"inet.linklayer.ethernet.modular.EthernetFcsInserter\""
par TimeSyncNetwork.timeTransmitter.ethernet.fcsInserter displayStringTextFormat "\"processed %p pk (%l)\""
par TimeSyncNetwork.timeTransmitter.ethernet.fcsInserter fcsMode "\"declared\""
attr enum disabled,declared,computed
scalar TimeSyncNetwork.timeTransmitter.ethernet.fcsInserter outgoingPackets:count 19
attr recordingmode count
attr source "merge(packetPushedOut, packetPulledOut)"
attr title "outgoing packets, count"
attr unit pk
scalar TimeSyncNetwork.timeTransmitter.ethernet.fcsInserter outgoingPacketLengths:sum 11664
attr interpolationmode none
attr recordingmode sum
attr source "packetLength(merge(packetPushedOut, packetPulledOut))"
attr title "outgoing packet lengths, sum"
attr unit b
statistic TimeSyncNetwork.timeTransmitter.ethernet.fcsInserter outgoingPacketLengths:histogram
field count 19
field mean 613.89473684211
field stddev 111.1345004622
field min 512
field max 752
field sum 11664
field sqrsum 7382784
attr interpolationmode none
attr recordingmode histogram
attr source "packetLength(merge(packetPushedOut, packetPulledOut))"
attr title "outgoing packet lengths"
attr unit b
bin	-inf	0
bin	450	0
bin	455	0
bin	460	0
bin	465	0
bin	470	0
bin	475	0
bin	480	0
bin	485	0
bin	490	0
bin	495	0
bin	500	0
bin	505	0
bin	510	8
bin	515	0
bin	520	0
bin	525	0
bin	530	0
bin	535	0
bin	540	0
bin	545	0
bin	550	0
bin	555	0
bin	560	0
bin	565	0
bin	570	0
bin	575	4
bin	580	0
bin	585	0
bin	590	0
bin	595	0
bin	600	0
bin	605	0
bin	610	0
bin	615	0
bin	620	0
bin	625	0
bin	630	0
bin	635	0
bin	640	0
bin	645	0
bin	650	0
bin	655	0
bin	660	0
bin	665	0
bin	670	0
bin	675	0
bin	680	0
bin	685	0
bin	690	0
bin	695	0
bin	700	0
bin	705	0
bin	710	0
bin	715	0
bin	720	0
bin	725	0
bin	730	0
bin	735	0
bin	740	0
bin	745	0
bin	750	7
bin	755	0
bin	760	0
bin	765	0
bin	770	0
bin	775	0
bin	780	0
bin	785	0
bin	790	0
bin	795	0
bin	800	0
bin	805	0
bin	810	0
bin	815	0
scalar TimeSyncNetwork.timeTransmitter.ethernet.fcsInserter flowOutgoingPacketLengths:sum 0
attr interpolationmode none
attr recordingmode sum
attr source "packetLength(demuxFlow(merge(packetPushedOut, packetPulledOut)))"
attr title "flow specific outgoing packet lengths, sum"
attr unit b
statistic TimeSyncNetwork.timeTransmitter.ethernet.fcsInserter flowOutgoingPacketLengths:histogram
field count 0
field mean -nan
field stddev nan
field min nan
field max nan
field sum 0
field sqrsum 0
attr interpolationmode none
attr recordingmode histogram
attr source "packetLength(demuxFlow(merge(packetPushedOut, packetPulledOut)))"
attr title "flow specific outgoing packet lengths"
attr unit b
bin	-inf	0
bin	0	0
bin	1	0
scalar TimeSyncNetwork.timeTransmitter.ethernet.fcsInserter incomingPackets:count 19
attr recordingmode count
attr source "merge(packetPushedIn, packetPulledIn)"
attr title "incoming packets, count"
attr unit pk
scalar TimeSyncNetwork.timeTransmitter.ethernet.fcsInserter incomingPacketLengths:sum 11056
attr interpolationmode none
attr recordingmode sum
attr source "packetLength(merge(packetPushedIn, packetPulledIn))"
attr title "incoming packet lengths, sum"
attr unit b
statistic TimeSyncNetwork.timeTransmitter.ethernet.fcsInserter incomingPacketLengths:histogram
field count 19
field mean 581.89473684211
field stddev 111.1345004622
field min 480
field max 720
field sum 11056
field sqrsum 6655744
attr interpolationmode none
attr recordingmode histogram
attr source "packetLength(merge(packetPushedIn, packetPulledIn))"
attr title "incoming packet lengths"
attr unit b
bin	-inf	0
bin	420	0
bin	425	0
bin	430	0
bin	435	0
bin	440	0
bin	445	0
bin	450	0
bin	455	0
bin	460	0
bin	465	0
bin	470	0
bin	475	0
bin	480	8
bin	485	0
bin	490	0
bin	495	0
bin	500	0
bin	505	0
bin	510	0
bin	515	0
bin	520	0
bin	525	0
bin	530	0
bin	535	0
bin	540	4
bin	545	0
bin	550	0
bin	555	0
bin	560	0
bin	565	0
bin	570	0
bin	575	0
bin	580	0
bin	585	0
bin	590	0
bin	595	0
bin	600	0
bin	605	0
bin	610	0
bin	615	0
bin	620	0
bin	625	0
bin	630	0
bin	635	0
bin	640	0
bin	645	0
bin	650	0
bin	655	0
bin	660	0
bin	665	0
bin	670	0
bin	675	0
bin	680	0
bin	685	0
bin	690	0
bin	695	0
bin	700	0
bin	705	0
bin	710	0
bin	715	0
bin	720	7
bin	725	0
bin	730	0
bin	735	0
bin	740	0
bin	745	0
bin	750	0
bin	755	0
bin	760	0
bin	765	0
bin	770	0
bin	775	0
bin	780	0
scalar TimeSyncNetwork.timeTransmitter.ethernet.fcsInserter flowIncomingPacketLengths:sum 0
attr interpolationmode none
attr recordingmode sum
attr source "packetLength(demuxFlow(merge(packetPushedIn, packetPulledIn)))"
attr title "flow specific incoming packet lengths, sum"
attr unit b
statistic TimeSyncNetwork.timeTransmitter.ethernet.fcsInserter flowIncomingPacketLengths:histogram
field count 0
field mean -nan
field stddev nan
field min nan
field max nan
field sum 0
field sqrsum 0
attr interpolationmode none
attr recordingmode histogram
attr source "packetLength(demuxFlow(merge(packetPushedIn, packetPulledIn)))"
attr title "flow specific incoming packet lengths"
attr unit b
bin	-inf	0
bin	0	0
bin	1	0
par TimeSyncNetwork.timeTransmitter.ethernet.macHeaderChecker typename "\"inet.linklayer.ethernet.modular.EthernetMacHeaderChecker\""
par TimeSyncNetwork.timeTransmitter.ethernet.macHeaderChecker displayStringTextFormat "\"dropped %d/%p pk (%k/%l)\""
par TimeSyncNetwork.timeTransmitter.ethernet.macHeaderChecker backpressure false
par TimeSyncNetwork.timeTransmitter.ethernet.macHeaderChecker interfaceTableModule "\"TimeSyncNetwork.timeTransmitter.interfaceTable\""
par TimeSyncNetwork.timeTransmitter.ethernet.macHeaderChecker promiscuous false
scalar TimeSyncNetwork.timeTransmitter.ethernet.macHeaderChecker outgoingPackets:count 2
attr recordingmode count
attr source "merge(packetPushedOut, packetPulledOut)"
attr title "outgoing packets, count"
attr unit pk
scalar TimeSyncNetwork.timeTransmitter.ethernet.macHeaderChecker outgoingPacketLengths:sum 864
attr interpolationmode none
attr recordingmode sum
attr source "packetLength(merge(packetPushedOut, packetPulledOut))"
attr title "outgoing packet lengths, sum"
attr unit b
statistic TimeSyncNetwork.timeTransmitter.ethernet.macHeaderChecker outgoingPacketLengths:histogram
field count 2
field mean 432
field stddev 0
field min 432
field max 432
field sum 864
field sqrsum 373248
attr interpolationmode none
attr recordingmode histogram
attr source "packetLength(merge(packetPushedOut, packetPulledOut))"
attr title "outgoing packet lengths"
attr unit b
bin	-inf	0
bin	431	0
bin	432	2
bin	433	0
scalar TimeSyncNetwork.timeTransmitter.ethernet.macHeaderChecker flowOutgoingPacketLengths:sum 0
attr interpolationmode none
attr recordingmode sum
attr source "packetLength(demuxFlow(merge(packetPushedOut, packetPulledOut)))"
attr title "flow specific outgoing packet lengths, sum"
attr unit b
statistic TimeSyncNetwork.timeTransmitter.ethernet.macHeaderChecker flowOutgoingPacketLengths:histogram
field count 0
field mean -nan
field stddev nan
field min nan
field max nan
field sum 0
field sqrsum 0
attr interpolationmode none
attr recordingmode histogram
[...]
attr unit bps
statistic TimeSyncNetwork.tsnDevice2.eth[0].phyLayer.receiver receptionTime:histogram
field count 16
field mean 6.89e-06
field stddev 1.17498368783e-06
field min 5.76e-06
field max 8.16e-06
field sum 0.00011024
field sqrsum 7.802624e-10
attr interpolationmode none
attr recordingmode histogram
attr source packetDuration(receptionEnded)
attr title "reception time"
attr unit s
bin	-inf	0
bin	5.15e-06	0
bin	5.2e-06	0
bin	5.25e-06	0
bin	5.3e-06	0
bin	5.35e-06	0
bin	5.4e-06	0
bin	5.45e-06	0
bin	5.5e-06	0
bin	5.55e-06	0
bin	5.6e-06	0
bin	5.65e-06	0
bin	5.7e-06	0
bin	5.75e-06	7
bin	5.8e-06	0
bin	5.85e-06	0
bin	5.9e-06	0
bin	5.95e-06	0
bin	6e-06	0
bin	6.05e-06	0
bin	6.1e-06	0
bin	6.15e-06	0
bin	6.2e-06	0
bin	6.25e-06	0
bin	6.3e-06	0
bin	6.35e-06	2
bin	6.4e-06	0
bin	6.45e-06	0
bin	6.5e-06	0
bin	6.55e-06	0
bin	6.6e-06	0
bin	6.65e-06	0
bin	6.7e-06	0
bin	6.75e-06	0
bin	6.8e-06	0
bin	6.85e-06	0
bin	6.9e-06	0
bin	6.95e-06	0
bin	7e-06	0
bin	7.05e-06	0
bin	7.1e-06	0
bin	7.15e-06	0
bin	7.2e-06	0
bin	7.25e-06	0
bin	7.3e-06	0
bin	7.35e-06	0
bin	7.4e-06	0
bin	7.45e-06	0
bin	7.5e-06	0
bin	7.55e-06	0
bin	7.6e-06	0
bin	7.65e-06	0
bin	7.7e-06	0
bin	7.75e-06	0
bin	7.8e-06	0
bin	7.85e-06	0
bin	7.9e-06	0
bin	7.95e-06	0
bin	8e-06	0
bin	8.05e-06	0
bin	8.1e-06	0
bin	8.15e-06	7
bin	8.2e-06	0
bin	8.25e-06	0
bin	8.3e-06	0
bin	8.35e-06	0
bin	8.4e-06	0
bin	8.45e-06	0
bin	8.5e-06	0
bin	8.55e-06	0
bin	8.6e-06	0
bin	8.65e-06	0
bin	8.7e-06	0
bin	8.75e-06	0
bin	8.8e-06	0
statistic TimeSyncNetwork.tsnDevice2.eth[0].phyLayer.receiver flowReceptionTime:histogram
field count 0
field mean -nan
field stddev nan
field min nan
field max nan
field sum 0
field sqrsum 0
attr interpolationmode none
attr recordingmode histogram
attr source packetDuration(demuxFlow(receptionEnded))
attr title "flow reception time"
attr unit s
bin	-inf	0
bin	0	0
bin	1	0
par TimeSyncNetwork.tsnDevice2.eth[0].phyLayer typename "\"inet.physicallayer.wired.ethernet.EthernetPhyLayer\""
par TimeSyncNetwork.tsnDevice2.eth[0].phyLayer bitrate this.bitrate
attr unit bps
par TimeSyncNetwork.tsnDevice2.eth[0] typename "\"inet.linklayer.ethernet.LayeredEthernetInterface\""
par TimeSyncNetwork.tsnDevice2.eth[0] displayStringTextFormat "\"%a (%i)\\n%m\""
par TimeSyncNetwork.tsnDevice2.eth[0] recordPcap false
par TimeSyncNetwork.tsnDevice2.eth[0] numPcapRecorders 0
par TimeSyncNetwork.tsnDevice2.eth[0] protocol "\"ethernetmac\""
par TimeSyncNetwork.tsnDevice2.eth[0] broadcast true
par TimeSyncNetwork.tsnDevice2.eth[0] multicast true
par TimeSyncNetwork.tsnDevice2.eth[0] address "\"0A-AA-00-00-00-0C\""
attr mutable ""
par TimeSyncNetwork.tsnDevice2.eth[0] bitrate 1e+08bps
attr unit bps
par TimeSyncNetwork.tsnDevice2.eth[0] mtu 1500B
attr unit B
par TimeSyncNetwork.tsnDevice2.eth[0] interfaceTableModule "\"TimeSyncNetwork.tsnDevice2.interfaceTable\""
scalar TimeSyncNetwork.tsnDevice2.eth[0] packetDropInterfaceDown:count 0
attr interpolationmode none
attr recordingmode count
attr source packetDropReasonIsInterfaceDown(packetDropped)
attr title "packet drops: interface down, count"
scalar TimeSyncNetwork.tsnDevice2.eth[0] packetDropInterfaceDown:sum(packetBytes) 0
attr interpolationmode none
attr recordingmode sum(packetBytes)
attr source packetDropReasonIsInterfaceDown(packetDropped)
attr title "packet drops: interface down, sum(packetBytes)"
scalar TimeSyncNetwork.tsnDevice2.eth[0] packetDropNoCarrier:count 0
attr interpolationmode none
attr recordingmode count
attr source packetDropReasonIsNoCarrier(packetDropped)
attr title "packet drops: no carrier, count"
scalar TimeSyncNetwork.tsnDevice2.eth[0] packetDropNoCarrier:sum(packetBytes) 0
attr interpolationmode none
attr recordingmode sum(packetBytes)
attr source packetDropReasonIsNoCarrier(packetDropped)
attr title "packet drops: no carrier, sum(packetBytes)"
par TimeSyncNetwork.tsnDevice2.ipv4.transportIn.channel typename "\"ned.IdealChannel\""
par TimeSyncNetwork.tsnDevice2.ipv4.up.out[0].channel typename "\"ned.IdealChannel\""
par TimeSyncNetwork.tsnDevice2.ipv4.lp.out[2].channel typename "\"ned.IdealChannel\""
par TimeSyncNetwork.tsnDevice2.ipv4.ifIn.channel typename "\"ned.IdealChannel\""
par TimeSyncNetwork.tsnDevice2.ipv4.configurator typename "\"inet.networklayer.configurator.ipv4.Ipv4NodeConfigurator\""
par TimeSyncNetwork.tsnDevice2.ipv4.configurator interfaceTableModule "\"TimeSyncNetwork.tsnDevice2.interfaceTable\""
par TimeSyncNetwork.tsnDevice2.ipv4.configurator routingTableModule "\"TimeSyncNetwork.tsnDevice2.ipv4.routingTable\""
par TimeSyncNetwork.tsnDevice2.ipv4.configurator networkConfiguratorModule "\"configurator\""
par TimeSyncNetwork.tsnDevice2.ipv4.configurator configureRoutingTable true
par TimeSyncNetwork.tsnDevice2.ipv4.routingTable typename "\"inet.networklayer.ipv4.Ipv4RoutingTable\""
par TimeSyncNetwork.tsnDevice2.ipv4.routingTable interfaceTableModule "\"TimeSyncNetwork.tsnDevice2.interfaceTable\""
par TimeSyncNetwork.tsnDevice2.ipv4.routingTable routerId "\"auto\""
par TimeSyncNetwork.tsnDevice2.ipv4.routingTable netmaskRoutes "\"*\""
par TimeSyncNetwork.tsnDevice2.ipv4.routingTable forwarding false
par TimeSyncNetwork.tsnDevice2.ipv4.routingTable multicastForwarding false
par TimeSyncNetwork.tsnDevice2.ipv4.routingTable useAdminDist false
par TimeSyncNetwork.tsnDevice2.ipv4.routingTable routingFile "\"\""
par TimeSyncNetwork.tsnDevice2.ipv4.natTable typename "\"inet.networklayer.ipv4.Ipv4NatTable\""
par TimeSyncNetwork.tsnDevice2.ipv4.natTable networkProtocolModule "\"^.ip\""
par TimeSyncNetwork.tsnDevice2.ipv4.natTable config "<config/> at content:1"
par TimeSyncNetwork.tsnDevice2.ipv4.up typename "\"inet.common.MessageDispatcher\""
par TimeSyncNetwork.tsnDevice2.ipv4.up displayStringTextFormat "\"processed %p pk (%l)\""
par TimeSyncNetwork.tsnDevice2.ipv4.up forwardServiceRegistration true
par TimeSyncNetwork.tsnDevice2.ipv4.up forwardProtocolRegistration true
par TimeSyncNetwork.tsnDevice2.ipv4.igmp typename "\"inet.networklayer.ipv4.Igmpv2\""
par TimeSyncNetwork.tsnDevice2.ipv4.igmp interfaceTableModule "\"TimeSyncNetwork.tsnDevice2.interfaceTable\""
par TimeSyncNetwork.tsnDevice2.ipv4.igmp routingTableModule "\"TimeSyncNetwork.tsnDevice2.ipv4.routingTable\""
par TimeSyncNetwork.tsnDevice2.ipv4.igmp crcMode "\"declared\""
attr enum declared,computed
par TimeSyncNetwork.tsnDevice2.ipv4.igmp enabled true
par TimeSyncNetwork.tsnDevice2.ipv4.igmp robustnessVariable 2
par TimeSyncNetwork.tsnDevice2.ipv4.igmp queryInterval 125s
attr unit s
par TimeSyncNetwork.tsnDevice2.ipv4.igmp queryResponseInterval 10s
attr unit s
par TimeSyncNetwork.tsnDevice2.ipv4.igmp groupMembershipInterval 260s
attr unit s
par TimeSyncNetwork.tsnDevice2.ipv4.igmp otherQuerierPresentInterval 255s
attr unit s
par TimeSyncNetwork.tsnDevice2.ipv4.igmp startupQueryInterval 31.25s
attr unit s
par TimeSyncNetwork.tsnDevice2.ipv4.igmp startupQueryCount 2
par TimeSyncNetwork.tsnDevice2.ipv4.igmp lastMemberQueryInterval 1s
attr unit s
par TimeSyncNetwork.tsnDevice2.ipv4.igmp lastMemberQueryCount 2
par TimeSyncNetwork.tsnDevice2.ipv4.igmp unsolicitedReportInterval 10s
attr unit s
par TimeSyncNetwork.tsnDevice2.ipv4.icmp typename "\"inet.networklayer.ipv4.Icmp\""
par TimeSyncNetwork.tsnDevice2.ipv4.icmp interfaceTableModule "\"TimeSyncNetwork.tsnDevice2.interfaceTable\""
par TimeSyncNetwork.tsnDevice2.ipv4.icmp routingTableModule "\"TimeSyncNetwork.tsnDevice2.ipv4.routingTable\""
par TimeSyncNetwork.tsnDevice2.ipv4.icmp crcMode "\"declared\""
attr enum declared,computed
attr mutable ""
par TimeSyncNetwork.tsnDevice2.ipv4.icmp quoteLength 8B
attr mutable ""
attr unit B
par TimeSyncNetwork.tsnDevice2.ipv4.mp typename "\"inet.common.MessageDispatcher\""
par TimeSyncNetwork.tsnDevice2.ipv4.mp displayStringTextFormat "\"processed %p pk (%l)\""
par TimeSyncNetwork.tsnDevice2.ipv4.mp forwardServiceRegistration true
par TimeSyncNetwork.tsnDevice2.ipv4.mp forwardProtocolRegistration true
par TimeSyncNetwork.tsnDevice2.ipv4.ip typename "\"inet.networklayer.ipv4.Ipv4\""
par TimeSyncNetwork.tsnDevice2.ipv4.ip interfaceTableModule "\"TimeSyncNetwork.tsnDevice2.interfaceTable\""
par TimeSyncNetwork.tsnDevice2.ipv4.ip routingTableModule "\"TimeSyncNetwork.tsnDevice2.ipv4.routingTable\""
par TimeSyncNetwork.tsnDevice2.ipv4.ip arpModule "\"TimeSyncNetwork.tsnDevice2.ipv4.arp\""
par TimeSyncNetwork.tsnDevice2.ipv4.ip icmpModule "\"TimeSyncNetwork.tsnDevice2.ipv4.icmp\""
par TimeSyncNetwork.tsnDevice2.ipv4.ip crcMode "\"declared\""
attr enum declared,computed
par TimeSyncNetwork.tsnDevice2.ipv4.ip timeToLive 32
par TimeSyncNetwork.tsnDevice2.ipv4.ip multicastTimeToLive 32
par TimeSyncNetwork.tsnDevice2.ipv4.ip fragmentTimeout 60s
attr unit s
par TimeSyncNetwork.tsnDevice2.ipv4.ip limitedBroadcast false
par TimeSyncNetwork.tsnDevice2.ipv4.ip directBroadcastInterfaces "\"\""
scalar TimeSyncNetwork.tsnDevice2.ipv4.ip packetDropAddressResolutionFailed:count 0
attr interpolationmode none
attr recordingmode count
attr source packetDropReasonIsAddressResolutionFailed(packetDropped)
attr title "packet drop: address resolution failed, count"
scalar TimeSyncNetwork.tsnDevice2.ipv4.ip packetDropAddressResolutionFailed:sum(packetBytes) 0
attr interpolationmode none
attr recordingmode sum(packetBytes)
attr source packetDropReasonIsAddressResolutionFailed(packetDropped)
attr title "packet drop: address resolution failed, sum(packetBytes)"
scalar TimeSyncNetwork.tsnDevice2.ipv4.ip packetDropHopLimitReached:count 0
attr interpolationmode none
attr recordingmode count
attr source packetDropReasonIsHopLimitReached(packetDropped)
attr title "packet drop: hop limit reached, count"
scalar TimeSyncNetwork.tsnDevice2.ipv4.ip packetDropHopLimitReached:sum(packetBytes) 0
attr interpolationmode none
attr recordingmode sum(packetBytes)
attr source packetDropReasonIsHopLimitReached(packetDropped)
attr title "packet drop: hop limit reached, sum(packetBytes)"
scalar TimeSyncNetwork.tsnDevice2.ipv4.ip packetDropForwardingDisabled:count 0
attr interpolationmode none
attr recordingmode count
attr source packetDropReasonIsForwardingDisabled(packetDropped)
attr title "packet drop: forwarding disabled, count"
scalar TimeSyncNetwork.tsnDevice2.ipv4.ip packetDropForwardingDisabled:sum(packetBytes) 0
attr interpolationmode none
attr recordingmode sum(packetBytes)
attr source packetDropReasonIsForwardingDisabled(packetDropped)
attr title "packet drop: forwarding disabled, sum(packetBytes)"
scalar TimeSyncNetwork.tsnDevice2.ipv4.ip packetDropNoInterfaceFound:count 0
attr interpolationmode none
attr recordingmode count
attr source packetDropReasonIsNoInterfaceFound(packetDropped)
attr title "packet drop: no interface found, count"
scalar TimeSyncNetwork.tsnDevice2.ipv4.ip packetDropNoInterfaceFound:sum(packetBytes) 0
attr interpolationmode none
attr recordingmode sum(packetBytes)
attr source packetDropReasonIsNoInterfaceFound(packetDropped)
attr title "packet drop: no interface found, sum(packetBytes)"
scalar TimeSyncNetwork.tsnDevice2.ipv4.ip packetDropNoRouteFound:count 0
attr interpolationmode none
attr recordingmode count
attr source packetDropReasonIsNoRouteFound(packetDropped)
attr title "packet drop: no route found, count"
scalar TimeSyncNetwork.tsnDevice2.ipv4.ip packetDropNoRouteFound:sum(packetBytes) 0
attr interpolationmode none
attr recordingmode sum(packetBytes)
attr source packetDropReasonIsNoRouteFound(packetDropped)
attr title "packet drop: no route found, sum(packetBytes)"
scalar TimeSyncNetwork.tsnDevice2.ipv4.ip packetDropUndefined:count 0
attr interpolationmode none
attr recordingmode count
attr source packetDropReasonIsUndefined(packetDropped)
attr title "packet drop: undefined, count"
scalar TimeSyncNetwork.tsnDevice2.ipv4.ip packetDropUndefined:sum(packetBytes) 0
attr interpolationmode none
attr recordingmode sum(packetBytes)
attr source packetDropReasonIsUndefined(packetDropped)
attr title "packet drop: undefined, sum(packetBytes)"
par TimeSyncNetwork.tsnDevice2.ipv4.arp typename "\"inet.networklayer.arp.ipv4.GlobalArp\""
par TimeSyncNetwork.tsnDevice2.ipv4.arp interfaceTableModule "\"TimeSyncNetwork.tsnDevice2.interfaceTable\""
par TimeSyncNetwork.tsnDevice2.ipv4.arp addressType "\"ipv4\""
attr enum ipv4,ipv6,mac,moduleid,modulepath
par TimeSyncNetwork.tsnDevice2.ipv4.lp typename "\"inet.common.MessageDispatcher\""
par TimeSyncNetwork.tsnDevice2.ipv4.lp displayStringTextFormat "\"processed %p pk (%l)\""
par TimeSyncNetwork.tsnDevice2.ipv4.lp forwardServiceRegistration true
par TimeSyncNetwork.tsnDevice2.ipv4.lp forwardProtocolRegistration true
par TimeSyncNetwork.tsnDevice2.ipv4 typename "\"inet.networklayer.ipv4.Ipv4NetworkLayer\""
par TimeSyncNetwork.tsnDevice2.ipv4 forwarding false
par TimeSyncNetwork.tsnDevice2.ipv4 multicastForwarding false
par TimeSyncNetwork.tsnDevice2.ipv4 interfaceTableModule "\"TimeSyncNetwork.tsnDevice2.interfaceTable\""
par TimeSyncNetwork.tsnDevice2.ipv4 displayStringTextFormat "\"%i\""
par TimeSyncNetwork.tsnDevice2.nl typename "\"inet.common.MessageDispatcher\""
par TimeSyncNetwork.tsnDevice2.nl displayStringTextFormat "\"processed %p pk (%l)\""
par TimeSyncNetwork.tsnDevice2.nl forwardServiceRegistration true
par TimeSyncNetwork.tsnDevice2.nl forwardProtocolRegistration true
par TimeSyncNetwork.tsnDevice2.udp typename "\"inet.transportlayer.udp.Udp\""
par TimeSyncNetwork.tsnDevice2.udp interfaceTableModule "\"TimeSyncNetwork.tsnDevice2.interfaceTable\""
par TimeSyncNetwork.tsnDevice2.udp icmpModule "\"^.ipv4.icmp\""
par TimeSyncNetwork.tsnDevice2.udp icmpv6Module "\"^.ipv6.icmpv6\""
par TimeSyncNetwork.tsnDevice2.udp crcMode "\"declared\""
attr enum disabled,declared,computed
par TimeSyncNetwork.tsnDevice2.udp defaultMulticastLoop true
scalar TimeSyncNetwork.tsnDevice2.udp packetReceived:count 0
attr interpolationmode none
attr recordingmode count
attr source packetReceived
attr title "packets received, count"
scalar TimeSyncNetwork.tsnDevice2.udp packetReceived:sum(packetBytes) 0
attr interpolationmode none
attr recordingmode sum(packetBytes)
attr source packetReceived
attr title "packets received, sum(packetBytes)"
scalar TimeSyncNetwork.tsnDevice2.udp packetSent:count 0
attr interpolationmode none
attr recordingmode count
attr source packetSent
attr title "packets sent, count"
scalar TimeSyncNetwork.tsnDevice2.udp packetSent:sum(packetBytes) 0
attr interpolationmode none
attr recordingmode sum(packetBytes)
attr source packetSent
attr title "packets sent, sum(packetBytes)"
scalar TimeSyncNetwork.tsnDevice2.udp passedUpPk:count 0
attr interpolationmode none
attr recordingmode count
attr source packetSentToUpper
attr title "packets passed up, count"
scalar TimeSyncNetwork.tsnDevice2.udp droppedPkWrongPort:count 0
attr interpolationmode none
attr recordingmode count
attr source packetDropReasonIsNoPortFound(packetDropped)
attr title "packets dropped (wrong port), count"
scalar TimeSyncNetwork.tsnDevice2.udp droppedPkBadChecksum:count 0
attr interpolationmode none
attr recordingmode count
attr source packetDropReasonIsIncorrectlyReceived(packetDropped)
attr title "packets dropped (checksum error), count"
par TimeSyncNetwork.tsnDevice2.tcp typename "\"inet.transportlayer.tcp.Tcp\""
par TimeSyncNetwork.tsnDevice2.tcp crcMode "\"declared\""
attr enum declared,computed
par TimeSyncNetwork.tsnDevice2.tcp advertisedWindow 7504
par TimeSyncNetwork.tsnDevice2.tcp delayedAcksEnabled false
par TimeSyncNetwork.tsnDevice2.tcp nagleEnabled true
par TimeSyncNetwork.tsnDevice2.tcp limitedTransmitEnabled false
par TimeSyncNetwork.tsnDevice2.tcp increasedIWEnabled false
par TimeSyncNetwork.tsnDevice2.tcp sackSupport false
par TimeSyncNetwork.tsnDevice2.tcp windowScalingSupport false
par TimeSyncNetwork.tsnDevice2.tcp windowScalingFactor -1
par TimeSyncNetwork.tsnDevice2.tcp timestampSupport false
par TimeSyncNetwork.tsnDevice2.tcp mss 536
par TimeSyncNetwork.tsnDevice2.tcp msl 120s
attr unit s
par TimeSyncNetwork.tsnDevice2.tcp tcpAlgorithmClass "\"TcpReno\""
attr enum TcpVegas,TcpWestwood,TcpNewReno,TcpReno,TcpTahoe,TcpNoCongestionControl
par TimeSyncNetwork.tsnDevice2.tcp useDataNotification false
par TimeSyncNetwork.tsnDevice2.tcp dupthresh 3
par TimeSyncNetwork.tsnDevice2.tcp initialSsthresh 4294967295
par TimeSyncNetwork.tsnDevice2.tcp stopOperationExtraTime 0s
attr unit s
par TimeSyncNetwork.tsnDevice2.tcp stopOperationTimeout 2s
attr unit s
par TimeSyncNetwork.tsnDevice2.tcp ecnWillingness false
par TimeSyncNetwork.tsnDevice2.tcp dctcpGamma 0.0625
par TimeSyncNetwork.tsnDevice2.tn typename "\"inet.common.MessageDispatcher\""
par TimeSyncNetwork.tsnDevice2.tn displayStringTextFormat "\"processed %p pk (%l)\""
par TimeSyncNetwork.tsnDevice2.tn forwardServiceRegistration true
par TimeSyncNetwork.tsnDevice2.tn forwardProtocolRegistration true
par TimeSyncNetwork.tsnDevice2.at typename "\"inet.common.MessageDispatcher\""
par TimeSyncNetwork.tsnDevice2.at displayStringTextFormat "\"processed %p pk (%l)\""
par TimeSyncNetwork.tsnDevice2.at forwardServiceRegistration true
par TimeSyncNetwork.tsnDevice2.at forwardProtocolRegistration true
par TimeSyncNetwork.tsnDevice2.gptp typename "\"inet.linklayer.ieee8021as.Gptp\""
par TimeSyncNetwork.tsnDevice2.gptp clockModule "\"TimeSyncNetwork.tsnDevice2.clock\""
par TimeSyncNetwork.tsnDevice2.gptp interfaceTableModule "\"TimeSyncNetwork.tsnDevice2.interfaceTable\""
par TimeSyncNetwork.tsnDevice2.gptp gptpNodeType "\"SLAVE_NODE\""
par TimeSyncNetwork.tsnDevice2.gptp domainNumber 0
par TimeSyncNetwork.tsnDevice2.gptp slavePort "\"eth0\""
par TimeSyncNetwork.tsnDevice2.gptp masterPorts []
par TimeSyncNetwork.tsnDevice2.gptp correctionField 0s
attr unit s
par TimeSyncNetwork.tsnDevice2.gptp syncInterval 0.125s
attr unit s
par TimeSyncNetwork.tsnDevice2.gptp pdelayInterval 1s
attr unit s
par TimeSyncNetwork.tsnDevice2.gptp syncInitialOffset 0.125s
attr unit s
par TimeSyncNetwork.tsnDevice2.gptp pdelayInitialOffset 0s
attr unit s
par TimeSyncNetwork.tsnDevice2.gptp pDelayReqProcessingTime 8e-06s
attr unit s
par TimeSyncNetwork.tsnDevice2.gptp followUpInterval 7e-06s
attr unit s
par TimeSyncNetwork.tsnDevice2 typename "\"inet.node.tsn.TsnDevice\""
par TimeSyncNetwork.tsnDevice2 hasStatus false
par TimeSyncNetwork.tsnDevice2 osgModel "\"\""
par TimeSyncNetwork.tsnDevice2 osgModelColor "\"\""
par TimeSyncNetwork.tsnDevice2 canvasImage "\"\""
par TimeSyncNetwork.tsnDevice2 canvasImageColor "\"\""
par TimeSyncNetwork.tsnDevice2 recordPcap false
par TimeSyncNetwork.tsnDevice2 numPcapRecorders 0
par TimeSyncNetwork.tsnDevice2 numLoInterfaces 1
par TimeSyncNetwork.tsnDevice2 numWlanInterfaces 0
par TimeSyncNetwork.tsnDevice2 numEthInterfaces 0
par TimeSyncNetwork.tsnDevice2 numPppInterfaces 0
par TimeSyncNetwork.tsnDevice2 numTunInterfaces 0
par TimeSyncNetwork.tsnDevice2 numVirtInterfaces 0
par TimeSyncNetwork.tsnDevice2 fcsMode "\"declared\""
attr enum declared,computed
par TimeSyncNetwork.tsnDevice2 hasIpv4 true
par TimeSyncNetwork.tsnDevice2 hasIpv6 false
par TimeSyncNetwork.tsnDevice2 hasGn false
par TimeSyncNetwork.tsnDevice2 forwarding false
par TimeSyncNetwork.tsnDevice2 multicastForwarding false
par TimeSyncNetwork.tsnDevice2 hasUdp true
par TimeSyncNetwork.tsnDevice2 hasTcp true
par TimeSyncNetwork.tsnDevice2 hasSctp false
par TimeSyncNetwork.tsnDevice2 numApps 0
par TimeSyncNetwork.tsnDevice2 hasTimeSynchronization true
par TimeSyncNetwork.tsnDevice2 hasIngressTrafficFiltering false
par TimeSyncNetwork.tsnDevice2 hasEgressTrafficFiltering false
par TimeSyncNetwork.tsnDevice2 hasEgressTrafficShaping false
par TimeSyncNetwork.tsnDevice2 hasStreamRedundancy false
par TimeSyncNetwork.tsnDevice2 hasIncomingStreams false
par TimeSyncNetwork.tsnDevice2 hasOutgoingStreams false
par TimeSyncNetwork.tsnDevice2 hasFramePreemption false
par TimeSyncNetwork.tsnDevice2 hasCutthroughSwitching false
par TimeSyncNetwork typename "\"d6g.simulations.timesync.TimeSyncNetwork\""
par TimeSyncNetwork recordPcap false
par TimeSyncNetwork numPcapRecorders 0
par TimeSyncNetwork hasGlobalArp true

