file 340621 1744197195                                          
version 3
run OneMasterClock-0-20250409-11:13:06-591
attr configname OneMasterClock
attr datetime 20250409-11:13:06
attr datetimef 20250409-111306
attr experiment OneMasterClock
attr inifile omnetpp.ini
attr iterationvars ""
attr iterationvarsd ""
attr iterationvarsf ""
attr measurement ""
attr network d6g.simulations.timesync.TimeSyncNetwork
attr processid 591
attr repetition 0
attr replication #0
attr resultdir results
attr runnumber 0
attr seedset 0
config image-path ../../../inet/images
config sim-time-limit 1s
config network d6g.simulations.timesync.TimeSyncNetwork
config description timesync
config **.timeTransmitter*.clock.oscillator.typename RandomDriftOscillator
config **.oscillator.changeInterval 12.5ms
config **.oscillator.driftRate "uniform(-100ppm, 100ppm)"
config **.oscillator.driftRateChange "uniform(-1ppm, 1ppm)"
config **.oscillator.driftRateChangeUpperLimit 100ppm
config **.oscillator.driftRateChangeLowerLimit -100ppm
config *.*.hasTimeSynchronization true
config *.detCom.*.hasTimeSynchronization true
config *.*.eth[*].bitrate 100Mbps
config *.*.*.eth[*].bitrate 100Mbps
config **.referenceClock "\"timeTransmitter.clock\""
config *.visualizer.typename IntegratedMultiCanvasVisualizer
config *.visualizer.infoVisualizer[*].displayInfos true
config *.timeTransmitter.gptp.masterPorts "[\"eth0\"]"
config *.detCom.dstt[*].gptp.slavePort "\"tt0\""
config *.detCom.dstt[*].gptp.masterPorts "[\"eth0\"]"
config *.detCom.nwtt.gptp.slavePort "\"eth0\""
config *.detCom.nwtt.gptp.masterPorts "[\"tt0\",\"tt1\"]"
config *.tsnDevice1.gptp.slavePort "\"eth0\""
config *.tsnDevice2.gptp.slavePort "\"eth0\""
config *.visualizer.dataLinkVisualizer[0].displayLinks true
config *.visualizer.dataLinkVisualizer[0].activityLevel "\"protocol\""
config *.visualizer.dataLinkVisualizer[0].packetFilter "\"GptpSync\""
config *.visualizer.dataLinkVisualizer[0].lineColor "\"blue2\""
config *.visualizer.numInfoVisualizers 3
config *.visualizer.infoVisualizer[0].modules "\"*.tsnClock.clock\""
config *.timeTransmitter.clock.displayStringTextFormat "\"time: %T\""
config *.visualizer.infoVisualizer[1].modules "\"*.tsnSwitch.clock\""
config *.visualizer.infoVisualizer[1].placementHint "\"topLeft\""
config *.visualizer.infoVisualizer[2].modules "\"*.tsnDevice*.clock\""
config *.visualizer.infoVisualizer[2].placementHint "\"bottom\""
config *.tsnDevice*.clock.displayStringTextFormat "\"diff: %d\""
config *.masterClock.clock.displayStringTextFormat "\"diff: %d\""

vector 0 TimeSyncNetwork.timeTransmitter.eth[0].phyLayer.interFrameGapInserter interpacketGap:vector ETV
attr interpolationmode sample-hold
attr recordingmode vector
attr source "count(interpacketGapStarted) - count(interpacketGapEnded)"
attr title "interpacket gap state"
attr type int
vector 1 TimeSyncNetwork.timeTransmitter.eth[0].phyLayer.transmitter transmitting:vector ETV
attr interpolationmode sample-hold
attr recordingmode vector
attr source "count(transmissionStarted) - count(transmissionEnded)"
attr title "transmitting state"
attr type int
vector 2 TimeSyncNetwork.timeTransmitter.udp passedUpPk:vector(count) ETV
attr interpolationmode none
attr recordingmode vector(count)
attr source packetSentToUpper
attr title "packets passed up, count"
vector 3 TimeSyncNetwork.timeTransmitter.udp droppedPkWrongPort:vector(count) ETV
attr interpolationmode none
attr recordingmode vector(count)
attr source packetDropReasonIsNoPortFound(packetDropped)
attr title "packets dropped (wrong port), count"
vector 4 TimeSyncNetwork.timeTransmitter.udp droppedPkBadChecksum:vector(count) ETV
attr interpolationmode none
attr recordingmode vector(count)
attr source packetDropReasonIsIncorrectlyReceived(packetDropped)
attr title "packets dropped (checksum error), count"
vector 5 TimeSyncNetwork.detCom.dstt[0].eth[0].phyLayer.interFrameGapInserter interpacketGap:vector ETV
attr interpolationmode sample-hold
attr recordingmode vector
attr source "count(interpacketGapStarted) - count(interpacketGapEnded)"
attr title "interpacket gap state"
attr type int
vector 6 TimeSyncNetwork.detCom.dstt[0].eth[0].phyLayer.transmitter transmitting:vector ETV
attr interpolationmode sample-hold
attr recordingmode vector
attr source "count(transmissionStarted) - count(transmissionEnded)"
attr title "transmitting state"
attr type int
vector 7 TimeSyncNetwork.detCom.dstt[0].tt[0].phyLayer.interFrameGapInserter interpacketGap:vector ETV
attr interpolationmode sample-hold
attr recordingmode vector
attr source "count(interpacketGapStarted) - count(interpacketGapEnded)"
attr title "interpacket gap state"
attr type int
vector 8 TimeSyncNetwork.detCom.dstt[0].tt[0].phyLayer.transmitter transmitting:vector ETV
attr interpolationmode sample-hold
attr recordingmode vector
attr source "count(transmissionStarted) - count(transmissionEnded)"
attr title "transmitting state"
attr type int
vector 9 TimeSyncNetwork.detCom.dstt[0].tt[1].phyLayer.interFrameGapInserter interpacketGap:vector ETV
attr interpolationmode sample-hold
attr recordingmode vector
attr source "count(interpacketGapStarted) - count(interpacketGapEnded)"
attr title "interpacket gap state"
attr type int
vector 10 TimeSyncNetwork.detCom.dstt[0].tt[1].phyLayer.transmitter transmitting:vector ETV
attr interpolationmode sample-hold
attr recordingmode vector
attr source "count(transmissionStarted) - count(transmissionEnded)"
attr title "transmitting state"
attr type int
vector 11 TimeSyncNetwork.detCom.dstt[1].eth[0].phyLayer.interFrameGapInserter interpacketGap:vector ETV
attr interpolationmode sample-hold
attr recordingmode vector
attr source "count(interpacketGapStarted) - count(interpacketGapEnded)"
attr title "interpacket gap state"
attr type int
vector 12 TimeSyncNetwork.detCom.dstt[1].eth[0].phyLayer.transmitter transmitting:vector ETV
attr interpolationmode sample-hold
attr recordingmode vector
attr source "count(transmissionStarted) - count(transmissionEnded)"
attr title "transmitting state"
attr type int
vector 13 TimeSyncNetwork.detCom.dstt[1].tt[0].phyLayer.interFrameGapInserter interpacketGap:vector ETV
attr interpolationmode sample-hold
attr recordingmode vector
attr source "count(interpacketGapStarted) - count(interpacketGapEnded)"
attr title "interpacket gap state"
attr type int
vector 14 TimeSyncNetwork.detCom.dstt[1].tt[0].phyLayer.transmitter transmitting:vector ETV
attr interpolationmode sample-hold
attr recordingmode vector
attr source "count(transmissionStarted) - count(transmissionEnded)"
attr title "transmitting state"
attr type int
vector 15 TimeSyncNetwork.detCom.dstt[1].tt[1].phyLayer.interFrameGapInserter interpacketGap:vector ETV
attr interpolationmode sample-hold
attr recordingmode vector
attr source "count(interpacketGapStarted) - count(interpacketGapEnded)"
attr title "interpacket gap state"
attr type int
vector 16 TimeSyncNetwork.detCom.dstt[1].tt[1].phyLayer.transmitter transmitting:vector ETV
attr interpolationmode sample-hold
attr recordingmode vector
attr source "count(transmissionStarted) - count(transmissionEnded)"
attr title "transmitting state"
attr type int
vector 17 TimeSyncNetwork.detCom.nwtt.eth[0].phyLayer.interFrameGapInserter interpacketGap:vector ETV
attr interpolationmode sample-hold
attr recordingmode vector
attr source "count(interpacketGapStarted) - count(interpacketGapEnded)"
attr title "interpacket gap state"
attr type int
vector 18 TimeSyncNetwork.detCom.nwtt.eth[0].phyLayer.transmitter transmitting:vector ETV
attr interpolationmode sample-hold
attr recordingmode vector
attr source "count(transmissionStarted) - count(transmissionEnded)"
attr title "transmitting state"
attr type int
vector 19 TimeSyncNetwork.detCom.nwtt.tt[0].phyLayer.interFrameGapInserter interpacketGap:vector ETV
attr interpolationmode sample-hold
attr recordingmode vector
attr source "count(interpacketGapStarted) - count(interpacketGapEnded)"
attr title "interpacket gap state"
attr type int
vector 20 TimeSyncNetwork.detCom.nwtt.tt[0].phyLayer.transmitter transmitting:vector ETV
attr interpolationmode sample-hold
attr recordingmode vector
attr source "count(transmissionStarted) - count(transmissionEnded)"
attr title "transmitting state"
attr type int
vector 21 TimeSyncNetwork.detCom.nwtt.tt[1].phyLayer.interFrameGapInserter interpacketGap:vector ETV
attr interpolationmode sample-hold
attr recordingmode vector
attr source "count(interpacketGapStarted) - count(interpacketGapEnded)"
attr title "interpacket gap state"
attr type int
vector 22 TimeSyncNetwork.detCom.nwtt.tt[1].phyLayer.transmitter transmitting:vector ETV
attr interpolationmode sample-hold
attr recordingmode vector
attr source "count(transmissionStarted) - count(transmissionEnded)"
attr title "transmitting state"
attr type int
vector 23 TimeSyncNetwork.tsnDevice1.eth[0].phyLayer.interFrameGapInserter interpacketGap:vector ETV
attr interpolationmode sample-hold
attr recordingmode vector
attr source "count(interpacketGapStarted) - count(interpacketGapEnded)"
attr title "interpacket gap state"
attr type int
vector 24 TimeSyncNetwork.tsnDevice1.eth[0].phyLayer.transmitter transmitting:vector ETV
attr interpolationmode sample-hold
attr recordingmode vector
attr source "count(transmissionStarted) - count(transmissionEnded)"
attr title "transmitting state"
attr type int
vector 25 TimeSyncNetwork.tsnDevice1.udp passedUpPk:vector(count) ETV
attr interpolationmode none
attr recordingmode vector(count)
attr source packetSentToUpper
attr title "packets passed up, count"
vector 26 TimeSyncNetwork.tsnDevice1.udp droppedPkWrongPort:vector(count) ETV
attr interpolationmode none
attr recordingmode vector(count)
attr source packetDropReasonIsNoPortFound(packetDropped)
attr title "packets dropped (wrong port), count"
vector 27 TimeSyncNetwork.tsnDevice1.udp droppedPkBadChecksum:vector(count) ETV
attr interpolationmode none
attr recordingmode vector(count)
attr source packetDropReasonIsIncorrectlyReceived(packetDropped)
attr title "packets dropped (checksum error), count"
vector 28 TimeSyncNetwork.tsnDevice2.eth[0].phyLayer.interFrameGapInserter interpacketGap:vector ETV
attr interpolationmode sample-hold
attr recordingmode vector
attr source "count(interpacketGapStarted) - count(interpacketGapEnded)"
attr title "interpacket gap state"
attr type int
vector 29 TimeSyncNetwork.tsnDevice2.eth[0].phyLayer.transmitter transmitting:vector ETV
attr interpolationmode sample-hold
attr recordingmode vector
attr source "count(transmissionStarted) - count(transmissionEnded)"
attr title "transmitting state"
attr type int
vector 30 TimeSyncNetwork.tsnDevice2.udp passedUpPk:vector(count) ETV
attr interpolationmode none
attr recordingmode vector(count)
attr source packetSentToUpper
attr title "packets passed up, count"
vector 31 TimeSyncNetwork.tsnDevice2.udp droppedPkWrongPort:vector(count) ETV
attr interpolationmode none
attr recordingmode vector(count)
attr source packetDropReasonIsNoPortFound(packetDropped)
attr title "packets dropped (wrong port), count"
vector 32 TimeSyncNetwork.tsnDevice2.udp droppedPkBadChecksum:vector(count) ETV
attr interpolationmode none
attr recordingmode vector(count)
attr source packetDropReasonIsIncorrectlyReceived(packetDropped)
attr title "packets dropped (checksum error), count"
vector 33 TimeSyncNetwork.timeTransmitter.clock timeChanged:vector ETV
attr interpolationmode linear
attr recordingmode vector
attr title "Clock time"
vector 34 TimeSyncNetwork.detCom.dstt[0].clock timeChanged:vector ETV
attr interpolationmode linear
attr recordingmode vector
attr title "Clock time"
vector 35 TimeSyncNetwork.detCom.dstt[1].clock timeChanged:vector ETV
attr interpolationmode linear
attr recordingmode vector
attr title "Clock time"
vector 36 TimeSyncNetwork.detCom.nwtt.clock timeChanged:vector ETV
attr interpolationmode linear
attr recordingmode vector
attr title "Clock time"
vector 37 TimeSyncNetwork.tsnDevice1.clock timeChanged:vector ETV
attr interpolationmode linear
attr recordingmode vector
attr title "Clock time"
vector 38 TimeSyncNetwork.tsnDevice2.clock timeChanged:vector ETV
attr interpolationmode linear
attr recordingmode vector
attr title "Clock time"
vector 39 TimeSyncNetwork.detCom.nwtt.ethernet.macHeaderInserter incomingPacketLengths:vector ETV
attr interpolationmode none
attr recordingmode vector
attr source "packetLength(merge(packetPushedIn, packetPulledIn))"
attr title "incoming packet lengths"
attr unit b
vector 40 TimeSyncNetwork.detCom.nwtt.ethernet.macHeaderInserter outgoingPacketLengths:vector ETV
attr interpolationmode none
attr recordingmode vector
attr source "packetLength(merge(packetPushedOut, packetPulledOut))"
attr title "outgoing packet lengths"
attr unit b
vector 41 TimeSyncNetwork.detCom.nwtt.ethernet.paddingInserter incomingPacketLengths:vector ETV
attr interpolationmode none
attr recordingmode vector
attr source "packetLength(merge(packetPushedIn, packetPulledIn))"
attr title "incoming packet lengths"
attr unit b
vector 42 TimeSyncNetwork.detCom.nwtt.ethernet.paddingInserter outgoingPacketLengths:vector ETV
attr interpolationmode none
attr recordingmode vector
attr source "packetLength(merge(packetPushedOut, packetPulledOut))"
attr title "outgoing packet lengths"
attr unit b
vector 43 TimeSyncNetwork.detCom.nwtt.ethernet.fcsInserter incomingPacketLengths:vector ETV
attr interpolationmode none
attr recordingmode vector
attr source "packetLength(merge(packetPushedIn, packetPulledIn))"
attr title "incoming packet lengths"
attr unit b
vector 44 TimeSyncNetwork.detCom.nwtt.ethernet.fcsInserter outgoingPacketLengths:vector ETV
attr interpolationmode none
attr recordingmode vector
attr source "packetLength(merge(packetPushedOut, packetPulledOut))"
attr title "outgoing packet lengths"
attr unit b
vector 45 TimeSyncNetwork.detCom.nwtt.eth[0].macLayer.queue incomingPacketLengths:vector ETV
attr interpolationmode none
attr recordingmode vector
attr source packetLength(packetPushStarted)
attr title "incoming packet lengths"
attr unit b
vector 46 TimeSyncNetwork.detCom.nwtt.eth[0].macLayer.queue queueLength:vector ETV
attr autoWarmupFilter false
attr interpolationmode sample-hold
attr recordingmode vector
attr source "warmup(atomic(constant0(packetPushEnded) + count(packetPushStarted) - count(packetPulled) - count(packetRemoved) - count(packetDropped)))"
attr title "queue length"
attr unit pk
vector 47 TimeSyncNetwork.detCom.nwtt.eth[0].macLayer.queue queueBitLength:vector ETV
attr autoWarmupFilter false
attr interpolationmode sample-hold
attr recordingmode vector
attr source "warmup(atomic(constant0(packetPushEnded) + sum(packetLength(packetPushStarted)) - sum(packetLength(packetPulled)) - sum(packetLength(packetRemoved)) - sum(packetLength(packetDropped))))"
attr title "queue bit length"
attr unit b
vector 48 TimeSyncNetwork.tsnDevice1.ethernet.macHeaderInserter incomingPacketLengths:vector ETV
attr interpolationmode none
attr recordingmode vector
attr source "packetLength(merge(packetPushedIn, packetPulledIn))"
attr title "incoming packet lengths"
attr unit b
vector 49 TimeSyncNetwork.tsnDevice1.ethernet.macHeaderInserter outgoingPacketLengths:vector ETV
attr interpolationmode none
attr recordingmode vector
attr source "packetLength(merge(packetPushedOut, packetPulledOut))"
attr title "outgoing packet lengths"
attr unit b
vector 50 TimeSyncNetwork.tsnDevice1.ethernet.paddingInserter incomingPacketLengths:vector ETV
attr interpolationmode none
attr recordingmode vector
attr source "packetLength(merge(packetPushedIn, packetPulledIn))"
attr title "incoming packet lengths"
attr unit b
vector 51 TimeSyncNetwork.tsnDevice1.ethernet.paddingInserter outgoingPacketLengths:vector ETV
attr interpolationmode none
attr recordingmode vector
attr source "packetLength(merge(packetPushedOut, packetPulledOut))"
attr title "outgoing packet lengths"
attr unit b
vector 52 TimeSyncNetwork.tsnDevice1.ethernet.fcsInserter incomingPacketLengths:vector ETV
attr interpolationmode none
attr recordingmode vector
attr source "packetLength(merge(packetPushedIn, packetPulledIn))"
attr title "incoming packet lengths"
attr unit b
vector 53 TimeSyncNetwork.tsnDevice1.ethernet.fcsInserter outgoingPacketLengths:vector ETV
attr interpolationmode none
attr recordingmode vector
attr source "packetLength(merge(packetPushedOut, packetPulledOut))"
attr title "outgoing packet lengths"
attr unit b
vector 54 TimeSyncNetwork.tsnDevice1.eth[0].macLayer.queue incomingPacketLengths:vector ETV
attr interpolationmode none
attr recordingmode vector
attr source packetLength(packetPushStarted)
attr title "incoming packet lengths"
attr unit b
vector 55 TimeSyncNetwork.tsnDevice1.eth[0].macLayer.queue queueLength:vector ETV
attr autoWarmupFilter false
attr interpolationmode sample-hold
attr recordingmode vector
attr source "warmup(atomic(constant0(packetPushEnded) + count(packetPushStarted) - count(packetPulled) - count(packetRemoved) - count(packetDropped)))"
attr title "queue length"
attr unit pk
vector 56 TimeSyncNetwork.tsnDevice1.eth[0].macLayer.queue queueBitLength:vector ETV
attr autoWarmupFilter false
attr interpolationmode sample-hold
attr recordingmode vector
attr source "warmup(atomic(constant0(packetPushEnded) + sum(packetLength(packetPushStarted)) - sum(packetLength(packetPulled)) - sum(packetLength(packetRemoved)) - sum(packetLength(packetDropped))))"
attr title "queue bit length"
attr unit b
vector 57 TimeSyncNetwork.tsnDevice2.ethernet.macHeaderInserter incomingPacketLengths:vector ETV
attr interpolationmode none
attr recordingmode vector
attr source "packetLength(merge(packetPushedIn, packetPulledIn))"
attr title "incoming packet lengths"
attr unit b
vector 58 TimeSyncNetwork.tsnDevice2.ethernet.macHeaderInserter outgoingPacketLengths:vector ETV
attr interpolationmode none
attr recordingmode vector
attr source "packetLength(merge(packetPushedOut, packetPulledOut))"
attr title "outgoing packet lengths"
attr unit b
vector 59 TimeSyncNetwork.tsnDevice2.ethernet.paddingInserter incomingPacketLengths:vector ETV
attr interpolationmode none
attr recordingmode vector
attr source "packetLength(merge(packetPushedIn, packetPulledIn))"
attr title "incoming packet lengths"
attr unit b
vector 60 TimeSyncNetwork.tsnDevice2.ethernet.paddingInserter outgoingPacketLengths:vector ETV
attr interpolationmode none
attr recordingmode vector
attr source "packetLength(merge(packetPushedOut, packetPulledOut))"
attr title "outgoing packet lengths"
attr unit b
vector 61 TimeSyncNetwork.tsnDevice2.ethernet.fcsInserter incomingPacketLengths:vector ETV
attr interpolationmode none
attr recordingmode vector
attr source "packetLength(merge(packetPushedIn, packetPulledIn))"
attr title "incoming packet lengths"
attr unit b
vector 62 TimeSyncNetwork.tsnDevice2.ethernet.fcsInserter outgoingPacketLengths:vector ETV
attr interpolationmode none
attr recordingmode vector
attr source "packetLength(merge(packetPushedOut, packetPulledOut))"
attr title "outgoing packet lengths"
attr unit b
vector 63 TimeSyncNetwork.tsnDevice2.eth[0].macLayer.queue incomingPacketLengths:vector ETV
attr interpolationmode none
attr recordingmode vector
attr source packetLength(packetPushStarted)
attr title "incoming packet lengths"
attr unit b
vector 64 TimeSyncNetwork.tsnDevice2.eth[0].macLayer.queue queueLength:vector ETV
attr autoWarmupFilter false
attr interpolationmode sample-hold
attr recordingmode vector
attr source "warmup(atomic(constant0(packetPushEnded) + count(packetPushStarted) - count(packetPulled) - count(packetRemoved) - count(packetDropped)))"
attr title "queue length"
attr unit pk
vector 65 TimeSyncNetwork.tsnDevice2.eth[0].macLayer.queue queueBitLength:vector ETV
attr autoWarmupFilter false
attr interpolationmode sample-hold
attr recordingmode vector
attr source "warmup(atomic(constant0(packetPushEnded) + sum(packetLength(packetPushStarted)) - sum(packetLength(packetPulled)) - sum(packetLength(packetRemoved)) - sum(packetLength(packetDropped))))"
attr title "queue bit length"
attr unit b
vector 66 TimeSyncNetwork.detCom.dstt[0].ethernet.macHeaderInserter incomingPacketLengths:vector ETV
attr interpolationmode none
attr recordingmode vector
attr source "packetLength(merge(packetPushedIn, packetPulledIn))"
attr title "incoming packet lengths"
attr unit b
vector 67 TimeSyncNetwork.detCom.dstt[0].ethernet.macHeaderInserter outgoingPacketLengths:vector ETV
attr interpolationmode none
attr recordingmode vector
attr source "packetLength(merge(packetPushedOut, packetPulledOut))"
attr title "outgoing packet lengths"
attr unit b
vector 68 TimeSyncNetwork.detCom.dstt[0].ethernet.paddingInserter incomingPacketLengths:vector ETV
attr interpolationmode none
attr recordingmode vector
attr source "packetLength(merge(packetPushedIn, packetPulledIn))"
attr title "incoming packet lengths"
attr unit b
vector 69 TimeSyncNetwork.detCom.dstt[0].ethernet.paddingInserter outgoingPacketLengths:vector ETV
attr interpolationmode none
attr recordingmode vector
attr source "packetLength(merge(packetPushedOut, packetPulledOut))"
attr title "outgoing packet lengths"
attr unit b
vector 70 TimeSyncNetwork.detCom.dstt[0].ethernet.fcsInserter incomingPacketLengths:vector ETV
attr interpolationmode none
attr recordingmode vector
attr source "packetLength(merge(packetPushedIn, packetPulledIn))"
attr title "incoming packet lengths"
attr unit b
vector 71 TimeSyncNetwork.detCom.dstt[0].ethernet.fcsInserter outgoingPacketLengths:vector ETV
attr interpolationmode none
attr recordingmode vector
attr source "packetLength(merge(packetPushedOut, packetPulledOut))"
attr title "outgoing packet lengths"
attr unit b
vector 72 TimeSyncNetwork.detCom.dstt[0].tt[0].macLayer.queue incomingPacketLengths:vector ETV
attr interpolationmode none
attr recordingmode vector
attr source packetLength(packetPushStarted)
attr title "incoming packet lengths"
attr unit b
vector 73 TimeSyncNetwork.detCom.dstt[0].tt[0].macLayer.queue queueLength:vector ETV
attr autoWarmupFilter false
attr interpolationmode sample-hold
attr recordingmode vector
attr source "warmup(atomic(constant0(packetPushEnded) + count(packetPushStarted) - count(packetPulled) - count(packetRemoved) - count(packetDropped)))"
attr title "queue length"
attr unit pk
vector 74 TimeSyncNetwork.detCom.dstt[0].tt[0].macLayer.queue queueBitLength:vector ETV
attr autoWarmupFilter false
attr interpolationmode sample-hold
attr recordingmode vector
attr source "warmup(atomic(constant0(packetPushEnded) + sum(packetLength(packetPushStarted)) - sum(packetLength(packetPulled)) - sum(packetLength(packetRemoved)) - sum(packetLength(packetDropped))))"
attr title "queue bit length"
attr unit b
vector 75 TimeSyncNetwork.detCom.dstt[1].ethernet.macHeaderInserter incomingPacketLengths:vector ETV
attr interpolationmode none
attr recordingmode vector
attr source "packetLength(merge(packetPushedIn, packetPulledIn))"
attr title "incoming packet lengths"
attr unit b
vector 76 TimeSyncNetwork.detCom.dstt[1].ethernet.macHeaderInserter outgoingPacketLengths:vector ETV
attr interpolationmode none
attr recordingmode vector
attr source "packetLength(merge(packetPushedOut, packetPulledOut))"
attr title "outgoing packet lengths"
attr unit b
vector 77 TimeSyncNetwork.detCom.dstt[1].ethernet.paddingInserter incomingPacketLengths:vector ETV
attr interpolationmode none
attr recordingmode vector
attr source "packetLength(merge(packetPushedIn, packetPulledIn))"
attr title "incoming packet lengths"
attr unit b
vector 78 TimeSyncNetwork.detCom.dstt[1].ethernet.paddingInserter outgoingPacketLengths:vector ETV
attr interpolationmode none
attr recordingmode vector
attr source "packetLength(merge(packetPushedOut, packetPulledOut))"
attr title "outgoing packet lengths"
attr unit b
vector 79 TimeSyncNetwork.detCom.dstt[1].ethernet.fcsInserter incomingPacketLengths:vector ETV
attr interpolationmode none
attr recordingmode vector
attr source "packetLength(merge(packetPushedIn, packetPulledIn))"
attr title "incoming packet lengths"
attr unit b
vector 80 TimeSyncNetwork.detCom.dstt[1].ethernet.fcsInserter outgoingPacketLengths:vector ETV
attr interpolationmode none
attr recordingmode vector
attr source "packetLength(merge(packetPushedOut, packetPulledOut))"
attr title "outgoing packet lengths"
attr unit b
vector 81 TimeSyncNetwork.detCom.dstt[1].tt[0].macLayer.queue incomingPacketLengths:vector ETV
attr interpolationmode none
attr recordingmode vector
attr source packetLength(packetPushStarted)
attr title "incoming packet lengths"
attr unit b
vector 82 TimeSyncNetwork.detCom.dstt[1].tt[0].macLayer.queue queueLength:vector ETV
attr autoWarmupFilter false
attr interpolationmode sample-hold
attr recordingmode vector
attr source "warmup(atomic(constant0(packetPushEnded) + count(packetPushStarted) - count(packetPulled) - count(packetRemoved) - count(packetDropped)))"
attr title "queue length"
attr unit pk
vector 83 TimeSyncNetwork.detCom.dstt[1].tt[0].macLayer.queue queueBitLength:vector ETV
attr autoWarmupFilter false
attr interpolationmode sample-hold
attr recordingmode vector
attr source "warmup(atomic(constant0(packetPushEnded) + sum(packetLength(packetPushStarted)) - sum(packetLength(packetPulled)) - sum(packetLength(packetRemoved)) - sum(packetLength(packetDropped))))"
attr title "queue bit length"
attr unit b
vector 84 TimeSyncNetwork.detCom.nwtt.eth[0].macLayer.queue queueingTime:vector ETV
attr interpolationmode none
attr recordingmode vector
attr source queueingTime(packetPulled)
attr title "queueing times"
attr unit s
vector 85 TimeSyncNetwork.detCom.nwtt.eth[0].macLayer.queue outgoingPacketLengths:vector ETV
attr interpolationmode none
attr recordingmode vector
attr source packetLength(packetPulled)
attr title "outgoing packet lengths"
attr unit b
vector 86 TimeSyncNetwork.detCom.nwtt.eth[0].macLayer.server incomingPacketLengths:vector ETV
attr interpolationmode none
attr recordingmode vector
attr source packetLength(packetPulled)
attr title "incoming packet lengths"
attr unit b
vector 87 TimeSyncNetwork.detCom.nwtt.eth[0].macLayer.server outgoingPacketLengths:vector ETV
attr interpolationmode none
attr recordingmode vector
attr source packetLength(packetPushed)
attr title "outgoing packet lengths"
attr unit b
vector 88 TimeSyncNetwork.detCom.nwtt.eth[0].macLayer.outboundEmitter incomingPacketLengths:vector ETV
attr interpolationmode none
attr recordingmode vector
attr source "packetLength(merge(packetPushedIn, packetPulledIn))"
attr title "incoming packet lengths"
attr unit b
vector 89 TimeSyncNetwork.detCom.nwtt.eth[0].macLayer.outboundEmitter outgoingPacketLengths:vector ETV
attr interpolationmode none
attr recordingmode vector
attr source "packetLength(merge(packetPushedOut, packetPulledOut))"
attr title "outgoing packet lengths"
attr unit b
vector 90 TimeSyncNetwork.detCom.nwtt.eth[0].phyLayer.phyHeaderInserter incomingPacketLengths:vector ETV
attr interpolationmode none
attr recordingmode vector
attr source "packetLength(merge(packetPushedIn, packetPulledIn))"
attr title "incoming packet lengths"
attr unit b
vector 91 TimeSyncNetwork.detCom.nwtt.eth[0].phyLayer.phyHeaderInserter outgoingPacketLengths:vector ETV
attr interpolationmode none
attr recordingmode vector
attr source "packetLength(merge(packetPushedOut, packetPulledOut))"
attr title "outgoing packet lengths"
attr unit b
vector 92 TimeSyncNetwork.detCom.nwtt.eth[0].phyLayer.outboundEmitter incomingPacketLengths:vector ETV
attr interpolationmode none
attr recordingmode vector
attr source "packetLength(merge(packetPushedIn, packetPulledIn))"
attr title "incoming packet lengths"
attr unit b
vector 93 TimeSyncNetwork.detCom.nwtt.eth[0].phyLayer.outboundEmitter outgoingPacketLengths:vector ETV
attr interpolationmode none
attr recordingmode vector
attr source "packetLength(merge(packetPushedOut, packetPulledOut))"
attr title "outgoing packet lengths"
attr unit b
vector 94 TimeSyncNetwork.tsnDevice1.eth[0].macLayer.queue queueingTime:vector ETV
attr interpolationmode none
attr recordingmode vector
attr source queueingTime(packetPulled)
attr title "queueing times"
attr unit s
vector 95 TimeSyncNetwork.tsnDevice1.eth[0].macLayer.queue outgoingPacketLengths:vector ETV
attr interpolationmode none
attr recordingmode vector
attr source packetLength(packetPulled)
attr title "outgoing packet lengths"
attr unit b
vector 96 TimeSyncNetwork.tsnDevice1.eth[0].macLayer.server incomingPacketLengths:vector ETV
attr interpolationmode none
attr recordingmode vector
attr source packetLength(packetPulled)
attr title "incoming packet lengths"
attr unit b
vector 97 TimeSyncNetwork.tsnDevice1.eth[0].macLayer.server outgoingPacketLengths:vector ETV
attr interpolationmode none
attr recordingmode vector
attr source packetLength(packetPushed)
attr title "outgoing packet lengths"
attr unit b
vector 98 TimeSyncNetwork.tsnDevice1.eth[0].macLayer.outboundEmitter incomingPacketLengths:vector ETV
attr interpolationmode none
attr recordingmode vector
attr source "packetLength(merge(packetPushedIn, packetPulledIn))"
attr title "incoming packet lengths"
attr unit b
vector 99 TimeSyncNetwork.tsnDevice1.eth[0].macLayer.outboundEmitter outgoingPacketLengths:vector ETV
attr interpolationmode none
attr recordingmode vector
attr source "packetLength(merge(packetPushedOut, packetPulledOut))"
attr title "outgoing packet lengths"
attr unit b
vector 100 TimeSyncNetwork.tsnDevice1.eth[0].phyLayer.phyHeaderInserter incomingPacketLengths:vector ETV
attr interpolationmode none
attr recordingmode vector
attr source "packetLength(merge(packetPushedIn, packetPulledIn))"
attr title "incoming packet lengths"
attr unit b
vector 101 TimeSyncNetwork.tsnDevice1.eth[0].phyLayer.phyHeaderInserter outgoingPacketLengths:vector ETV
attr interpolationmode none
attr recordingmode vector
attr source "packetLength(merge(packetPushedOut, packetPulledOut))"
attr title "outgoing packet lengths"
attr unit b
vector 102 TimeSyncNetwork.tsnDevice1.eth[0].phyLayer.outboundEmitter incomingPacketLengths:vector ETV
attr interpolationmode none
attr recordingmode vector
attr source "packetLength(merge(packetPushedIn, packetPulledIn))"
attr title "incoming packet lengths"
attr unit b
vector 103 TimeSyncNetwork.tsnDevice1.eth[0].phyLayer.outboundEmitter outgoingPacketLengths:vector ETV
attr interpolationmode none
attr recordingmode vector
attr source "packetLength(merge(packetPushedOut, packetPulledOut))"
attr title "outgoing packet lengths"
attr unit b
vector 104 TimeSyncNetwork.tsnDevice2.eth[0].macLayer.queue queueingTime:vector ETV
attr interpolationmode none
attr recordingmode vector
attr source queueingTime(packetPulled)
attr title "queueing times"
attr unit s
vector 105 TimeSyncNetwork.tsnDevice2.eth[0].macLayer.queue outgoingPacketLengths:vector ETV
attr interpolationmode none
attr recordingmode vector
attr source packetLength(packetPulled)
attr title "outgoing packet lengths"
attr unit b
vector 106 TimeSyncNetwork.tsnDevice2.eth[0].macLayer.server incomingPacketLengths:vector ETV
attr interpolationmode none
attr recordingmode vector
attr source packetLength(packetPulled)
attr title "incoming packet lengths"
attr unit b
vector 107 TimeSyncNetwork.tsnDevice2.eth[0].macLayer.server outgoingPacketLengths:vector ETV
attr interpolationmode none
attr recordingmode vector
attr source packetLength(packetPushed)
attr title "outgoing packet lengths"
attr unit b
vector 108 TimeSyncNetwork.tsnDevice2.eth[0].macLayer.outboundEmitter incomingPacketLengths:vector ETV
attr interpolationmode none
attr recordingmode vector
attr source "packetLength(merge(packetPushedIn, packetPulledIn))"
attr title "incoming packet lengths"
attr unit b
vector 109 TimeSyncNetwork.tsnDevice2.eth[0].macLayer.outboundEmitter outgoingPacketLengths:vector ETV
attr interpolationmode none
attr recordingmode vector
attr source "packetLength(merge(packetPushedOut, packetPulledOut))"
attr title "outgoing packet lengths"
attr unit b
vector 110 TimeSyncNetwork.tsnDevice2.eth[0].phyLayer.phyHeaderInserter incomingPacketLengths:vector ETV
attr interpolationmode none
attr recordingmode vector
attr source "packetLength(merge(packetPushedIn, packetPulledIn))"
attr title "incoming packet lengths"
attr unit b
vector 111 TimeSyncNetwork.tsnDevice2.eth[0].phyLayer.phyHeaderInserter outgoingPacketLengths:vector ETV
attr interpolationmode none
attr recordingmode vector
attr source "packetLength(merge(packetPushedOut, packetPulledOut))"
attr title "outgoing packet lengths"
attr unit b
vector 112 TimeSyncNetwork.tsnDevice2.eth[0].phyLayer.outboundEmitter incomingPacketLengths:vector ETV
attr interpolationmode none
attr recordingmode vector
attr source "packetLength(merge(packetPushedIn, packetPulledIn))"
attr title "incoming packet lengths"
attr unit b
vector 113 TimeSyncNetwork.tsnDevice2.eth[0].phyLayer.outboundEmitter outgoingPacketLengths:vector ETV
attr interpolationmode none
attr recordingmode vector
attr source "packetLength(merge(packetPushedOut, packetPulledOut))"
attr title "outgoing packet lengths"
attr unit b
vector 114 TimeSyncNetwork.detCom.dstt[0].tt[0].macLayer.queue queueingTime:vector ETV
attr interpolationmode none
attr recordingmode vector
attr source queueingTime(packetPulled)
attr title "queueing times"
attr unit s
vector 115 TimeSyncNetwork.detCom.dstt[0].tt[0].macLayer.queue outgoingPacketLengths:vector ETV
attr interpolationmode none
attr recordingmode vector
attr source packetLength(packetPulled)
attr title "outgoing packet lengths"
attr unit b
vector 116 TimeSyncNetwork.detCom.dstt[0].tt[0].macLayer.server incomingPacketLengths:vector ETV
attr interpolationmode none
attr recordingmode vector
attr source packetLength(packetPulled)
attr title "incoming packet lengths"
attr unit b
vector 117 TimeSyncNetwork.detCom.dstt[0].tt[0].macLayer.server outgoingPacketLengths:vector ETV
attr interpolationmode none
attr recordingmode vector
attr source packetLength(packetPushed)
attr title "outgoing packet lengths"
attr unit b
vector 118 TimeSyncNetwork.detCom.dstt[0].tt[0].macLayer.outboundEmitter incomingPacketLengths:vector ETV
attr interpolationmode none
attr recordingmode vector
attr source "packetLength(merge(packetPushedIn, packetPulledIn))"
attr title "incoming packet lengths"
attr unit b
vector 119 TimeSyncNetwork.detCom.dstt[0].tt[0].macLayer.outboundEmitter outgoingPacketLengths:vector ETV
attr interpolationmode none
attr recordingmode vector
attr source "packetLength(merge(packetPushedOut, packetPulledOut))"
attr title "outgoing packet lengths"
attr unit b
vector 120 TimeSyncNetwork.detCom.dstt[0].tt[0].phyLayer.phyHeaderInserter incomingPacketLengths:vector ETV
attr interpolationmode none
attr recordingmode vector
attr source "packetLength(merge(packetPushedIn, packetPulledIn))"
attr title "incoming packet lengths"
attr unit b
vector 121 TimeSyncNetwork.detCom.dstt[0].tt[0].phyLayer.phyHeaderInserter outgoingPacketLengths:vector ETV
attr interpolationmode none
attr recordingmode vector
attr source "packetLength(merge(packetPushedOut, packetPulledOut))"
attr title "outgoing packet lengths"
attr unit b
vector 122 TimeSyncNetwork.detCom.dstt[0].tt[0].phyLayer.outboundEmitter incomingPacketLengths:vector ETV
attr interpolationmode none
attr recordingmode vector
attr source "packetLength(merge(packetPushedIn, packetPulledIn))"
attr title "incoming packet lengths"
attr unit b
vector 123 TimeSyncNetwork.detCom.dstt[0].tt[0].phyLayer.outboundEmitter outgoingPacketLengths:vector ETV
attr interpolationmode none
attr recordingmode vector
attr source "packetLength(merge(packetPushedOut, packetPulledOut))"
attr title "outgoing packet lengths"
attr unit b
vector 124 TimeSyncNetwork.detCom.dstt[1].tt[0].macLayer.queue queueingTime:vector ETV
attr interpolationmode none
attr recordingmode vector
attr source queueingTime(packetPulled)
attr title "queueing times"
attr unit s
vector 125 TimeSyncNetwork.detCom.dstt[1].tt[0].macLayer.queue outgoingPacketLengths:vector ETV
attr interpolationmode none
attr recordingmode vector
attr source packetLength(packetPulled)
attr title "outgoing packet lengths"
attr unit b
vector 126 TimeSyncNetwork.detCom.dstt[1].tt[0].macLayer.server incomingPacketLengths:vector ETV
attr interpolationmode none
attr recordingmode vector
attr source packetLength(packetPulled)
attr title "incoming packet lengths"
attr unit b
vector 127 TimeSyncNetwork.detCom.dstt[1].tt[0].macLayer.server outgoingPacketLengths:vector ETV
attr interpolationmode none
attr recordingmode vector
attr source packetLength(packetPushed)
attr title "outgoing packet lengths"
attr unit b
vector 128 TimeSyncNetwork.detCom.dstt[1].tt[0].macLayer.outboundEmitter incomingPacketLengths:vector ETV
attr interpolationmode none
attr recordingmode vector
attr source "packetLength(merge(packetPushedIn, packetPulledIn))"
attr title "incoming packet lengths"
attr unit b
vector 129 TimeSyncNetwork.detCom.dstt[1].tt[0].macLayer.outboundEmitter outgoingPacketLengths:vector ETV
attr interpolationmode none
attr recordingmode vector
attr source "packetLength(merge(packetPushedOut, packetPulledOut))"
attr title "outgoing packet lengths"
attr unit b
vector 130 TimeSyncNetwork.detCom.dstt[1].tt[0].phyLayer.phyHeaderInserter incomingPacketLengths:vector ETV
attr interpolationmode none
attr recordingmode vector
attr source "packetLength(merge(packetPushedIn, packetPulledIn))"
attr title "incoming packet lengths"
attr unit b
vector 131 TimeSyncNetwork.detCom.dstt[1].tt[0].phyLayer.phyHeaderInserter outgoingPacketLengths:vector ETV
attr interpolationmode none
attr recordingmode vector
attr source "packetLength(merge(packetPushedOut, packetPulledOut))"
attr title "outgoing packet lengths"
attr unit b
vector 132 TimeSyncNetwork.detCom.dstt[1].tt[0].phyLayer.outboundEmitter incomingPacketLengths:vector ETV
attr interpolationmode none
attr recordingmode vector
attr source "packetLength(merge(packetPushedIn, packetPulledIn))"
attr title "incoming packet lengths"
attr unit b
vector 133 TimeSyncNetwork.detCom.dstt[1].tt[0].phyLayer.outboundEmitter outgoingPacketLengths:vector ETV
attr interpolationmode none
attr recordingmode vector
attr source "packetLength(merge(packetPushedOut, packetPulledOut))"
attr title "outgoing packet lengths"
attr unit b
vector 134 TimeSyncNetwork.detCom.nwtt.tt[0].phyLayer.receiver receptionTime:vector ETV
attr interpolationmode none
attr recordingmode vector
attr source packetDuration(receptionEnded)
attr title "reception time"
attr unit s
vector 135 TimeSyncNetwork.detCom.nwtt.tt[0].phyLayer.inboundEmitter incomingPacketLengths:vector ETV
attr interpolationmode none
attr recordingmode vector
attr source "packetLength(merge(packetPushedIn, packetPulledIn))"
attr title "incoming packet lengths"
attr unit b
vector 136 TimeSyncNetwork.detCom.nwtt.tt[0].phyLayer.inboundEmitter outgoingPacketLengths:vector ETV
attr interpolationmode none
attr recordingmode vector
attr source "packetLength(merge(packetPushedOut, packetPulledOut))"
attr title "outgoing packet lengths"
attr unit b
vector 137 TimeSyncNetwork.detCom.nwtt.tt[0].phyLayer.phyHeaderChecker incomingPacketLengths:vector ETV
attr interpolationmode none
attr recordingmode vector
attr source "packetLength(merge(packetPushedIn, packetPulledIn))"
attr title "incoming packet lengths"
attr unit b
vector 138 TimeSyncNetwork.detCom.nwtt.tt[0].phyLayer.phyHeaderChecker outgoingPacketLengths:vector ETV
attr interpolationmode none
attr recordingmode vector
attr source "packetLength(merge(packetPushedOut, packetPulledOut))"
attr title "outgoing packet lengths"
attr unit b
vector 139 TimeSyncNetwork.detCom.nwtt.tt[0].macLayer.inboundEmitter incomingPacketLengths:vector ETV
attr interpolationmode none
attr recordingmode vector
attr source "packetLength(merge(packetPushedIn, packetPulledIn))"
attr title "incoming packet lengths"
attr unit b
vector 140 TimeSyncNetwork.detCom.nwtt.tt[0].macLayer.inboundEmitter outgoingPacketLengths:vector ETV
attr interpolationmode none
attr recordingmode vector
attr source "packetLength(merge(packetPushedOut, packetPulledOut))"
attr title "outgoing packet lengths"
attr unit b
vector 141 TimeSyncNetwork.detCom.nwtt.tt[0].macLayer.fcsChecker incomingPacketLengths:vector ETV
attr interpolationmode none
attr recordingmode vector
attr source "packetLength(merge(packetPushedIn, packetPulledIn))"
attr title "incoming packet lengths"
attr unit b
vector 142 TimeSyncNetwork.detCom.nwtt.tt[0].macLayer.fcsChecker outgoingPacketLengths:vector ETV
attr interpolationmode none
attr recordingmode vector
attr source "packetLength(merge(packetPushedOut, packetPulledOut))"
attr title "outgoing packet lengths"
attr unit b
vector 143 TimeSyncNetwork.detCom.nwtt.ethernet.fcsChecker incomingPacketLengths:vector ETV
attr interpolationmode none
attr recordingmode vector
attr source "packetLength(merge(packetPushedIn, packetPulledIn))"
attr title "incoming packet lengths"
attr unit b
vector 144 TimeSyncNetwork.detCom.nwtt.ethernet.fcsChecker outgoingPacketLengths:vector ETV
attr interpolationmode none
attr recordingmode vector
attr source "packetLength(merge(packetPushedOut, packetPulledOut))"
attr title "outgoing packet lengths"
attr unit b
vector 145 TimeSyncNetwork.detCom.nwtt.ethernet.macHeaderChecker incomingPacketLengths:vector ETV
attr interpolationmode none
attr recordingmode vector
attr source "packetLength(merge(packetPushedIn, packetPulledIn))"
attr title "incoming packet lengths"
attr unit b
vector 146 TimeSyncNetwork.detCom.nwtt.ethernet.macHeaderChecker outgoingPacketLengths:vector ETV
attr interpolationmode none
attr recordingmode vector
attr source "packetLength(merge(packetPushedOut, packetPulledOut))"
attr title "outgoing packet lengths"
attr unit b
vector 147 TimeSyncNetwork.detCom.nwtt.bridging.interfaceRelay.learner incomingPacketLengths:vector ETV
attr interpolationmode none
attr recordingmode vector
attr source "packetLength(merge(packetPushedIn, packetPulledIn))"
attr title "incoming packet lengths"
attr unit b
vector 148 TimeSyncNetwork.detCom.nwtt.bridging.interfaceRelay.learner outgoingPacketLengths:vector ETV
attr interpolationmode none
attr recordingmode vector
attr source "packetLength(merge(packetPushedOut, packetPulledOut))"
attr title "outgoing packet lengths"
attr unit b
vector 149 TimeSyncNetwork.detCom.dstt[0].tt[0].phyLayer.transmitter transmissionTime:vector ETV
attr interpolationmode none
attr recordingmode vector
attr source packetDuration(transmissionEnded)
attr title "transmission time"
attr unit s
vector 150 TimeSyncNetwork.detCom.nwtt.tt[1].phyLayer.receiver receptionTime:vector ETV
attr interpolationmode none
attr recordingmode vector
attr source packetDuration(receptionEnded)
attr title "reception time"
attr unit s
vector 151 TimeSyncNetwork.detCom.nwtt.tt[1].phyLayer.inboundEmitter incomingPacketLengths:vector ETV
attr interpolationmode none
attr recordingmode vector
attr source "packetLength(merge(packetPushedIn, packetPulledIn))"
attr title "incoming packet lengths"
attr unit b
vector 152 TimeSyncNetwork.detCom.nwtt.tt[1].phyLayer.inboundEmitter outgoingPacketLengths:vector ETV
attr interpolationmode none
attr recordingmode vector
attr source "packetLength(merge(packetPushedOut, packetPulledOut))"
attr title "outgoing packet lengths"
attr unit b
vector 153 TimeSyncNetwork.detCom.nwtt.tt[1].phyLayer.phyHeaderChecker incomingPacketLengths:vector ETV
attr interpolationmode none
attr recordingmode vector
attr source "packetLength(merge(packetPushedIn, packetPulledIn))"
attr title "incoming packet lengths"
attr unit b
vector 154 TimeSyncNetwork.detCom.nwtt.tt[1].phyLayer.phyHeaderChecker outgoingPacketLengths:vector ETV
attr interpolationmode none
attr recordingmode vector
attr source "packetLength(merge(packetPushedOut, packetPulledOut))"
attr title "outgoing packet lengths"
attr unit b
vector 155 TimeSyncNetwork.detCom.nwtt.tt[1].macLayer.inboundEmitter incomingPacketLengths:vector ETV
attr interpolationmode none
attr recordingmode vector
attr source "packetLength(merge(packetPushedIn, packetPulledIn))"
attr title "incoming packet lengths"
attr unit b
vector 156 TimeSyncNetwork.detCom.nwtt.tt[1].macLayer.inboundEmitter outgoingPacketLengths:vector ETV
attr interpolationmode none
attr recordingmode vector
attr source "packetLength(merge(packetPushedOut, packetPulledOut))"
attr title "outgoing packet lengths"
attr unit b
vector 157 TimeSyncNetwork.detCom.nwtt.tt[1].macLayer.fcsChecker incomingPacketLengths:vector ETV
attr interpolationmode none
attr recordingmode vector
attr source "packetLength(merge(packetPushedIn, packetPulledIn))"
attr title "incoming packet lengths"
attr unit b
vector 158 TimeSyncNetwork.detCom.nwtt.tt[1].macLayer.fcsChecker outgoingPacketLengths:vector ETV
attr interpolationmode none
attr recordingmode vector
attr source "packetLength(merge(packetPushedOut, packetPulledOut))"
attr title "outgoing packet lengths"
attr unit b
vector 159 TimeSyncNetwork.detCom.dstt[1].tt[0].phyLayer.transmitter transmissionTime:vector ETV
attr interpolationmode none
attr recordingmode vector
attr source packetDuration(transmissionEnded)
attr title "transmission time"
attr unit s
vector 160 TimeSyncNetwork.detCom.nwtt.eth[0].phyLayer.transmitter transmissionTime:vector ETV
attr interpolationmode none
attr recordingmode vector
attr source packetDuration(transmissionEnded)
attr title "transmission time"
attr unit s
vector 161 TimeSyncNetwork.tsnDevice1.eth[0].phyLayer.transmitter transmissionTime:vector ETV
attr interpolationmode none
attr recordingmode vector
attr source packetDuration(transmissionEnded)
attr title "transmission time"
attr unit s
vector 162 TimeSyncNetwork.tsnDevice2.eth[0].phyLayer.transmitter transmissionTime:vector ETV
attr interpolationmode none
attr recordingmode vector
attr source packetDuration(transmissionEnded)
attr title "transmission time"
attr unit s
vector 163 TimeSyncNetwork.timeTransmitter.eth[0].phyLayer.receiver receptionTime:vector ETV
attr interpolationmode none
attr recordingmode vector
attr source packetDuration(receptionEnded)
attr title "reception time"
attr unit s
vector 164 TimeSyncNetwork.timeTransmitter.eth[0].phyLayer.inboundEmitter incomingPacketLengths:vector ETV
attr interpolationmode none
attr recordingmode vector
attr source "packetLength(merge(packetPushedIn, packetPulledIn))"
attr title "incoming packet lengths"
attr unit b
vector 165 TimeSyncNetwork.timeTransmitter.eth[0].phyLayer.inboundEmitter outgoingPacketLengths:vector ETV
attr interpolationmode none
attr recordingmode vector
attr source "packetLength(merge(packetPushedOut, packetPulledOut))"
attr title "outgoing packet lengths"
attr unit b
vector 166 TimeSyncNetwork.timeTransmitter.eth[0].phyLayer.phyHeaderChecker incomingPacketLengths:vector ETV
attr interpolationmode none
attr recordingmode vector
attr source "packetLength(merge(packetPushedIn, packetPulledIn))"
attr title "incoming packet lengths"
attr unit b
vector 167 TimeSyncNetwork.timeTransmitter.eth[0].phyLayer.phyHeaderChecker outgoingPacketLengths:vector ETV
attr interpolationmode none
attr recordingmode vector
attr source "packetLength(merge(packetPushedOut, packetPulledOut))"
attr title "outgoing packet lengths"
attr unit b
vector 168 TimeSyncNetwork.timeTransmitter.eth[0].macLayer.inboundEmitter incomingPacketLengths:vector ETV
attr interpolationmode none
attr recordingmode vector
attr source "packetLength(merge(packetPushedIn, packetPulledIn))"
attr title "incoming packet lengths"
attr unit b
vector 169 TimeSyncNetwork.timeTransmitter.eth[0].macLayer.inboundEmitter outgoingPacketLengths:vector ETV
attr interpolationmode none
attr recordingmode vector
attr source "packetLength(merge(packetPushedOut, packetPulledOut))"
attr title "outgoing packet lengths"
attr unit b
vector 170 TimeSyncNetwork.timeTransmitter.eth[0].macLayer.fcsChecker incomingPacketLengths:vector ETV
attr interpolationmode none
attr recordingmode vector
attr source "packetLength(merge(packetPushedIn, packetPulledIn))"
attr title "incoming packet lengths"
attr unit b
vector 171 TimeSyncNetwork.timeTransmitter.eth[0].macLayer.fcsChecker outgoingPacketLengths:vector ETV
attr interpolationmode none
attr recordingmode vector
attr source "packetLength(merge(packetPushedOut, packetPulledOut))"
attr title "outgoing packet lengths"
attr unit b
vector 172 TimeSyncNetwork.timeTransmitter.ethernet.fcsChecker incomingPacketLengths:vector ETV
attr interpolationmode none
attr recordingmode vector
attr source "packetLength(merge(packetPushedIn, packetPulledIn))"
attr title "incoming packet lengths"
attr unit b
vector 173 TimeSyncNetwork.timeTransmitter.ethernet.fcsChecker outgoingPacketLengths:vector ETV
attr interpolationmode none
attr recordingmode vector
attr source "packetLength(merge(packetPushedOut, packetPulledOut))"
attr title "outgoing packet lengths"
attr unit b
vector 174 TimeSyncNetwork.timeTransmitter.ethernet.macHeaderChecker incomingPacketLengths:vector ETV
attr interpolationmode none
attr recordingmode vector
attr source "packetLength(merge(packetPushedIn, packetPulledIn))"
attr title "incoming packet lengths"
attr unit b
vector 175 TimeSyncNetwork.timeTransmitter.ethernet.macHeaderChecker outgoingPacketLengths:vector ETV
attr interpolationmode none
attr recordingmode vector
attr source "packetLength(merge(packetPushedOut, packetPulledOut))"
attr title "outgoing packet lengths"
attr unit b
vector 176 TimeSyncNetwork.detCom.dstt[0].eth[0].phyLayer.receiver receptionTime:vector ETV
attr interpolationmode none
attr recordingmode vector
attr source packetDuration(receptionEnded)
attr title "reception time"
attr unit s
vector 177 TimeSyncNetwork.detCom.dstt[0].eth[0].phyLayer.inboundEmitter incomingPacketLengths:vector ETV
attr interpolationmode none
attr recordingmode vector
attr source "packetLength(merge(packetPushedIn, packetPulledIn))"
attr title "incoming packet lengths"
attr unit b
vector 178 TimeSyncNetwork.detCom.dstt[0].eth[0].phyLayer.inboundEmitter outgoingPacketLengths:vector ETV
attr interpolationmode none
attr recordingmode vector
attr source "packetLength(merge(packetPushedOut, packetPulledOut))"
attr title "outgoing packet lengths"
attr unit b
vector 179 TimeSyncNetwork.detCom.dstt[0].eth[0].phyLayer.phyHeaderChecker incomingPacketLengths:vector ETV
attr interpolationmode none
attr recordingmode vector
attr source "packetLength(merge(packetPushedIn, packetPulledIn))"
attr title "incoming packet lengths"
attr unit b
vector 180 TimeSyncNetwork.detCom.dstt[0].eth[0].phyLayer.phyHeaderChecker outgoingPacketLengths:vector ETV
attr interpolationmode none
attr recordingmode vector
attr source "packetLength(merge(packetPushedOut, packetPulledOut))"
attr title "outgoing packet lengths"
attr unit b
vector 181 TimeSyncNetwork.detCom.dstt[0].eth[0].macLayer.inboundEmitter incomingPacketLengths:vector ETV
attr interpolationmode none
attr recordingmode vector
attr source "packetLength(merge(packetPushedIn, packetPulledIn))"
attr title "incoming packet lengths"
attr unit b
vector 182 TimeSyncNetwork.detCom.dstt[0].eth[0].macLayer.inboundEmitter outgoingPacketLengths:vector ETV
attr interpolationmode none
attr recordingmode vector
attr source "packetLength(merge(packetPushedOut, packetPulledOut))"
attr title "outgoing packet lengths"
attr unit b
vector 183 TimeSyncNetwork.detCom.dstt[0].eth[0].macLayer.fcsChecker incomingPacketLengths:vector ETV
attr interpolationmode none
attr recordingmode vector
attr source "packetLength(merge(packetPushedIn, packetPulledIn))"
attr title "incoming packet lengths"
attr unit b
vector 184 TimeSyncNetwork.detCom.dstt[0].eth[0].macLayer.fcsChecker outgoingPacketLengths:vector ETV
attr interpolationmode none
attr recordingmode vector
attr source "packetLength(merge(packetPushedOut, packetPulledOut))"
attr title "outgoing packet lengths"
attr unit b
vector 185 TimeSyncNetwork.detCom.dstt[0].ethernet.fcsChecker incomingPacketLengths:vector ETV
attr interpolationmode none
attr recordingmode vector
attr source "packetLength(merge(packetPushedIn, packetPulledIn))"
attr title "incoming packet lengths"
attr unit b
vector 186 TimeSyncNetwork.detCom.dstt[0].ethernet.fcsChecker outgoingPacketLengths:vector ETV
attr interpolationmode none
attr recordingmode vector
attr source "packetLength(merge(packetPushedOut, packetPulledOut))"
attr title "outgoing packet lengths"
attr unit b
vector 187 TimeSyncNetwork.detCom.dstt[0].ethernet.macHeaderChecker incomingPacketLengths:vector ETV
attr interpolationmode none
attr recordingmode vector
attr source "packetLength(merge(packetPushedIn, packetPulledIn))"
attr title "incoming packet lengths"
attr unit b
vector 188 TimeSyncNetwork.detCom.dstt[0].ethernet.macHeaderChecker outgoingPacketLengths:vector ETV
attr interpolationmode none
attr recordingmode vector
attr source "packetLength(merge(packetPushedOut, packetPulledOut))"
attr title "outgoing packet lengths"
attr unit b
vector 189 TimeSyncNetwork.detCom.dstt[1].eth[0].phyLayer.receiver receptionTime:vector ETV
attr interpolationmode none
attr recordingmode vector
attr source packetDuration(receptionEnded)
attr title "reception time"
attr unit s
vector 190 TimeSyncNetwork.detCom.dstt[1].eth[0].phyLayer.inboundEmitter incomingPacketLengths:vector ETV
attr interpolationmode none
attr recordingmode vector
attr source "packetLength(merge(packetPushedIn, packetPulledIn))"
attr title "incoming packet lengths"
attr unit b
vector 191 TimeSyncNetwork.detCom.dstt[1].eth[0].phyLayer.inboundEmitter outgoingPacketLengths:vector ETV
attr interpolationmode none
attr recordingmode vector
attr source "packetLength(merge(packetPushedOut, packetPulledOut))"
attr title "outgoing packet lengths"
attr unit b
vector 192 TimeSyncNetwork.detCom.dstt[1].eth[0].phyLayer.phyHeaderChecker incomingPacketLengths:vector ETV
attr interpolationmode none
attr recordingmode vector
attr source "packetLength(merge(packetPushedIn, packetPulledIn))"
attr title "incoming packet lengths"
attr unit b
vector 193 TimeSyncNetwork.detCom.dstt[1].eth[0].phyLayer.phyHeaderChecker outgoingPacketLengths:vector ETV
attr interpolationmode none
attr recordingmode vector
attr source "packetLength(merge(packetPushedOut, packetPulledOut))"
attr title "outgoing packet lengths"
attr unit b
vector 194 TimeSyncNetwork.detCom.dstt[1].eth[0].macLayer.inboundEmitter incomingPacketLengths:vector ETV
attr interpolationmode none
attr recordingmode vector
attr source "packetLength(merge(packetPushedIn, packetPulledIn))"
attr title "incoming packet lengths"
attr unit b
vector 195 TimeSyncNetwork.detCom.dstt[1].eth[0].macLayer.inboundEmitter outgoingPacketLengths:vector ETV
attr interpolationmode none
attr recordingmode vector
attr source "packetLength(merge(packetPushedOut, packetPulledOut))"
attr title "outgoing packet lengths"
attr unit b
vector 196 TimeSyncNetwork.detCom.dstt[1].eth[0].macLayer.fcsChecker incomingPacketLengths:vector ETV
attr interpolationmode none
attr recordingmode vector
attr source "packetLength(merge(packetPushedIn, packetPulledIn))"
attr title "incoming packet lengths"
attr unit b
vector 197 TimeSyncNetwork.detCom.dstt[1].eth[0].macLayer.fcsChecker outgoingPacketLengths:vector ETV
attr interpolationmode none
attr recordingmode vector
attr source "packetLength(merge(packetPushedOut, packetPulledOut))"
attr title "outgoing packet lengths"
attr unit b
vector 198 TimeSyncNetwork.detCom.dstt[1].ethernet.fcsChecker incomingPacketLengths:vector ETV
attr interpolationmode none
attr recordingmode vector
attr source "packetLength(merge(packetPushedIn, packetPulledIn))"
attr title "incoming packet lengths"
attr unit b
vector 199 TimeSyncNetwork.detCom.dstt[1].ethernet.fcsChecker outgoingPacketLengths:vector ETV
attr interpolationmode none
attr recordingmode vector
attr source "packetLength(merge(packetPushedOut, packetPulledOut))"
attr title "outgoing packet lengths"
attr unit b
vector 200 TimeSyncNetwork.detCom.dstt[1].ethernet.macHeaderChecker incomingPacketLengths:vector ETV
attr interpolationmode none
attr recordingmode vector
attr source "packetLength(merge(packetPushedIn, packetPulledIn))"
attr title "incoming packet lengths"
attr unit b
vector 201 TimeSyncNetwork.detCom.dstt[1].ethernet.macHeaderChecker outgoingPacketLengths:vector ETV
attr interpolationmode none
attr recordingmode vector
attr source "packetLength(merge(packetPushedOut, packetPulledOut))"
attr title "outgoing packet lengths"
attr unit b
vector 202 TimeSyncNetwork.detCom.dstt[0].bridging.interfaceRelay.learner incomingPacketLengths:vector ETV
attr interpolationmode none
attr recordingmode vector
attr source "packetLength(merge(packetPushedIn, packetPulledIn))"
attr title "incoming packet lengths"
attr unit b
vector 203 TimeSyncNetwork.detCom.dstt[0].bridging.interfaceRelay.learner outgoingPacketLengths:vector ETV
attr interpolationmode none
attr recordingmode vector
attr source "packetLength(merge(packetPushedOut, packetPulledOut))"
attr title "outgoing packet lengths"
attr unit b
vector 204 TimeSyncNetwork.detCom.dstt[1].bridging.interfaceRelay.learner incomingPacketLengths:vector ETV
attr interpolationmode none
attr recordingmode vector
attr source "packetLength(merge(packetPushedIn, packetPulledIn))"
attr title "incoming packet lengths"
attr unit b
vector 205 TimeSyncNetwork.detCom.dstt[1].bridging.interfaceRelay.learner outgoingPacketLengths:vector ETV
attr interpolationmode none
attr recordingmode vector
attr source "packetLength(merge(packetPushedOut, packetPulledOut))"
attr title "outgoing packet lengths"
attr unit b
vector 206 TimeSyncNetwork.detCom.nwtt.tt[0].macLayer.queue incomingPacketLengths:vector ETV
attr interpolationmode none
attr recordingmode vector
attr source packetLength(packetPushStarted)
attr title "incoming packet lengths"
attr unit b
vector 207 TimeSyncNetwork.detCom.nwtt.tt[0].macLayer.queue queueLength:vector ETV
attr autoWarmupFilter false
attr interpolationmode sample-hold
attr recordingmode vector
attr source "warmup(atomic(constant0(packetPushEnded) + count(packetPushStarted) - count(packetPulled) - count(packetRemoved) - count(packetDropped)))"
attr title "queue length"
attr unit pk
vector 208 TimeSyncNetwork.detCom.nwtt.tt[0].macLayer.queue queueBitLength:vector ETV
attr autoWarmupFilter false
attr interpolationmode sample-hold
attr recordingmode vector
attr source "warmup(atomic(constant0(packetPushEnded) + sum(packetLength(packetPushStarted)) - sum(packetLength(packetPulled)) - sum(packetLength(packetRemoved)) - sum(packetLength(packetDropped))))"
attr title "queue bit length"
attr unit b
vector 209 TimeSyncNetwork.detCom.nwtt.tt[1].macLayer.queue incomingPacketLengths:vector ETV
attr interpolationmode none
attr recordingmode vector
attr source packetLength(packetPushStarted)
attr title "incoming packet lengths"
attr unit b
vector 210 TimeSyncNetwork.detCom.nwtt.tt[1].macLayer.queue queueLength:vector ETV
attr autoWarmupFilter false
attr interpolationmode sample-hold
attr recordingmode vector
attr source "warmup(atomic(constant0(packetPushEnded) + count(packetPushStarted) - count(packetPulled) - count(packetRemoved) - count(packetDropped)))"
attr title "queue length"
attr unit pk
vector 211 TimeSyncNetwork.detCom.nwtt.tt[1].macLayer.queue queueBitLength:vector ETV
attr autoWarmupFilter false
attr interpolationmode sample-hold
attr recordingmode vector
attr source "warmup(atomic(constant0(packetPushEnded) + sum(packetLength(packetPushStarted)) - sum(packetLength(packetPulled)) - sum(packetLength(packetRemoved)) - sum(packetLength(packetDropped))))"
attr title "queue bit length"
attr unit b
vector 212 TimeSyncNetwork.detCom.nwtt.tt[0].macLayer.queue queueingTime:vector ETV
attr interpolationmode none
attr recordingmode vector
attr source queueingTime(packetPulled)
attr title "queueing times"
attr unit s
vector 213 TimeSyncNetwork.detCom.nwtt.tt[0].macLayer.queue outgoingPacketLengths:vector ETV
attr interpolationmode none
attr recordingmode vector
attr source packetLength(packetPulled)
attr title "outgoing packet lengths"
attr unit b
vector 214 TimeSyncNetwork.detCom.nwtt.tt[0].macLayer.server incomingPacketLengths:vector ETV
attr interpolationmode none
attr recordingmode vector
attr source packetLength(packetPulled)
attr title "incoming packet lengths"
attr unit b
vector 215 TimeSyncNetwork.detCom.nwtt.tt[0].macLayer.server outgoingPacketLengths:vector ETV
attr interpolationmode none
attr recordingmode vector
attr source packetLength(packetPushed)
attr title "outgoing packet lengths"
attr unit b
vector 216 TimeSyncNetwork.detCom.nwtt.tt[0].macLayer.outboundEmitter incomingPacketLengths:vector ETV
attr interpolationmode none
attr recordingmode vector
attr source "packetLength(merge(packetPushedIn, packetPulledIn))"
attr title "incoming packet lengths"
attr unit b
vector 217 TimeSyncNetwork.detCom.nwtt.tt[0].macLayer.outboundEmitter outgoingPacketLengths:vector ETV
attr interpolationmode none
attr recordingmode vector
attr source "packetLength(merge(packetPushedOut, packetPulledOut))"
attr title "outgoing packet lengths"
attr unit b
vector 218 TimeSyncNetwork.detCom.nwtt.tt[0].phyLayer.phyHeaderInserter incomingPacketLengths:vector ETV
attr interpolationmode none
attr recordingmode vector
attr source "packetLength(merge(packetPushedIn, packetPulledIn))"
attr title "incoming packet lengths"
attr unit b
vector 219 TimeSyncNetwork.detCom.nwtt.tt[0].phyLayer.phyHeaderInserter outgoingPacketLengths:vector ETV
attr interpolationmode none
attr recordingmode vector
attr source "packetLength(merge(packetPushedOut, packetPulledOut))"
attr title "outgoing packet lengths"
attr unit b
vector 220 TimeSyncNetwork.detCom.nwtt.tt[0].phyLayer.outboundEmitter incomingPacketLengths:vector ETV
attr interpolationmode none
attr recordingmode vector
attr source "packetLength(merge(packetPushedIn, packetPulledIn))"
attr title "incoming packet lengths"
attr unit b
vector 221 TimeSyncNetwork.detCom.nwtt.tt[0].phyLayer.outboundEmitter outgoingPacketLengths:vector ETV
attr interpolationmode none
attr recordingmode vector
attr source "packetLength(merge(packetPushedOut, packetPulledOut))"
attr title "outgoing packet lengths"
attr unit b
vector 222 TimeSyncNetwork.detCom.nwtt.tt[1].macLayer.queue queueingTime:vector ETV
attr interpolationmode none
attr recordingmode vector
attr source queueingTime(packetPulled)
attr title "queueing times"
attr unit s
vector 223 TimeSyncNetwork.detCom.nwtt.tt[1].macLayer.queue outgoingPacketLengths:vector ETV
attr interpolationmode none
attr recordingmode vector
attr source packetLength(packetPulled)
attr title "outgoing packet lengths"
attr unit b
vector 224 TimeSyncNetwork.detCom.nwtt.tt[1].macLayer.server incomingPacketLengths:vector ETV
attr interpolationmode none
attr recordingmode vector
attr source packetLength(packetPulled)
attr title "incoming packet lengths"
attr unit b
vector 225 TimeSyncNetwork.detCom.nwtt.tt[1].macLayer.server outgoingPacketLengths:vector ETV
attr interpolationmode none
attr recordingmode vector
attr source packetLength(packetPushed)
attr title "outgoing packet lengths"
attr unit b
vector 226 TimeSyncNetwork.detCom.nwtt.tt[1].macLayer.outboundEmitter incomingPacketLengths:vector ETV
attr interpolationmode none
attr recordingmode vector
attr source "packetLength(merge(packetPushedIn, packetPulledIn))"
attr title "incoming packet lengths"
attr unit b
vector 227 TimeSyncNetwork.detCom.nwtt.tt[1].macLayer.outboundEmitter outgoingPacketLengths:vector ETV
attr interpolationmode none
attr recordingmode vector
attr source "packetLength(merge(packetPushedOut, packetPulledOut))"
attr title "outgoing packet lengths"
attr unit b
vector 228 TimeSyncNetwork.detCom.nwtt.tt[1].phyLayer.phyHeaderInserter incomingPacketLengths:vector ETV
attr interpolationmode none
attr recordingmode vector
attr source "packetLength(merge(packetPushedIn, packetPulledIn))"
attr title "incoming packet lengths"
attr unit b
vector 229 TimeSyncNetwork.detCom.nwtt.tt[1].phyLayer.phyHeaderInserter outgoingPacketLengths:vector ETV
attr interpolationmode none
attr recordingmode vector
attr source "packetLength(merge(packetPushedOut, packetPulledOut))"
attr title "outgoing packet lengths"
attr unit b
vector 230 TimeSyncNetwork.detCom.nwtt.tt[1].phyLayer.outboundEmitter incomingPacketLengths:vector ETV
attr interpolationmode none
attr recordingmode vector
attr source "packetLength(merge(packetPushedIn, packetPulledIn))"
attr title "incoming packet lengths"
attr unit b
vector 231 TimeSyncNetwork.detCom.nwtt.tt[1].phyLayer.outboundEmitter outgoingPacketLengths:vector ETV
attr interpolationmode none
attr recordingmode vector
attr source "packetLength(merge(packetPushedOut, packetPulledOut))"
attr title "outgoing packet lengths"
attr unit b
vector 232 TimeSyncNetwork.detCom.dstt[0].tt[0].phyLayer.receiver receptionTime:vector ETV
attr interpolationmode none
attr recordingmode vector
attr source packetDuration(receptionEnded)
attr title "reception time"
attr unit s
vector 233 TimeSyncNetwork.detCom.dstt[0].tt[0].phyLayer.inboundEmitter incomingPacketLengths:vector ETV
attr interpolationmode none
attr recordingmode vector
attr source "packetLength(merge(packetPushedIn, packetPulledIn))"
attr title "incoming packet lengths"
attr unit b
vector 234 TimeSyncNetwork.detCom.dstt[0].tt[0].phyLayer.inboundEmitter outgoingPacketLengths:vector ETV
attr interpolationmode none
attr recordingmode vector
attr source "packetLength(merge(packetPushedOut, packetPulledOut))"
attr title "outgoing packet lengths"
attr unit b
vector 235 TimeSyncNetwork.detCom.dstt[0].tt[0].phyLayer.phyHeaderChecker incomingPacketLengths:vector ETV
attr interpolationmode none
attr recordingmode vector
attr source "packetLength(merge(packetPushedIn, packetPulledIn))"
attr title "incoming packet lengths"
attr unit b
vector 236 TimeSyncNetwork.detCom.dstt[0].tt[0].phyLayer.phyHeaderChecker outgoingPacketLengths:vector ETV
attr interpolationmode none
attr recordingmode vector
attr source "packetLength(merge(packetPushedOut, packetPulledOut))"
attr title "outgoing packet lengths"
attr unit b
vector 237 TimeSyncNetwork.detCom.dstt[0].tt[0].macLayer.inboundEmitter incomingPacketLengths:vector ETV
attr interpolationmode none
attr recordingmode vector
attr source "packetLength(merge(packetPushedIn, packetPulledIn))"
attr title "incoming packet lengths"
attr unit b
vector 238 TimeSyncNetwork.detCom.dstt[0].tt[0].macLayer.inboundEmitter outgoingPacketLengths:vector ETV
attr interpolationmode none
attr recordingmode vector
attr source "packetLength(merge(packetPushedOut, packetPulledOut))"
attr title "outgoing packet lengths"
attr unit b
vector 239 TimeSyncNetwork.detCom.dstt[0].tt[0].macLayer.fcsChecker incomingPacketLengths:vector ETV
attr interpolationmode none
attr recordingmode vector
attr source "packetLength(merge(packetPushedIn, packetPulledIn))"
attr title "incoming packet lengths"
attr unit b
vector 240 TimeSyncNetwork.detCom.dstt[0].tt[0].macLayer.fcsChecker outgoingPacketLengths:vector ETV
attr interpolationmode none
attr recordingmode vector
attr source "packetLength(merge(packetPushedOut, packetPulledOut))"
attr title "outgoing packet lengths"
attr unit b
vector 241 TimeSyncNetwork.detCom.nwtt.tt[0].phyLayer.transmitter transmissionTime:vector ETV
attr interpolationmode none
attr recordingmode vector
attr source packetDuration(transmissionEnded)
attr title "transmission time"
attr unit s
vector 242 TimeSyncNetwork.detCom.dstt[1].tt[0].phyLayer.receiver receptionTime:vector ETV
attr interpolationmode none
attr recordingmode vector
attr source packetDuration(receptionEnded)
attr title "reception time"
attr unit s
vector 243 TimeSyncNetwork.detCom.dstt[1].tt[0].phyLayer.inboundEmitter incomingPacketLengths:vector ETV
attr interpolationmode none
attr recordingmode vector
attr source "packetLength(merge(packetPushedIn, packetPulledIn))"
attr title "incoming packet lengths"
attr unit b
vector 244 TimeSyncNetwork.detCom.dstt[1].tt[0].phyLayer.inboundEmitter outgoingPacketLengths:vector ETV
attr interpolationmode none
attr recordingmode vector
attr source "packetLength(merge(packetPushedOut, packetPulledOut))"
attr title "outgoing packet lengths"
attr unit b
vector 245 TimeSyncNetwork.detCom.dstt[1].tt[0].phyLayer.phyHeaderChecker incomingPacketLengths:vector ETV
attr interpolationmode none
attr recordingmode vector
attr source "packetLength(merge(packetPushedIn, packetPulledIn))"
attr title "incoming packet lengths"
attr unit b
vector 246 TimeSyncNetwork.detCom.dstt[1].tt[0].phyLayer.phyHeaderChecker outgoingPacketLengths:vector ETV
attr interpolationmode none
attr recordingmode vector
attr source "packetLength(merge(packetPushedOut, packetPulledOut))"
attr title "outgoing packet lengths"
attr unit b
vector 247 TimeSyncNetwork.detCom.dstt[1].tt[0].macLayer.inboundEmitter incomingPacketLengths:vector ETV
attr interpolationmode none
attr recordingmode vector
attr source "packetLength(merge(packetPushedIn, packetPulledIn))"
attr title "incoming packet lengths"
attr unit b
vector 248 TimeSyncNetwork.detCom.dstt[1].tt[0].macLayer.inboundEmitter outgoingPacketLengths:vector ETV
attr interpolationmode none
attr recordingmode vector
attr source "packetLength(merge(packetPushedOut, packetPulledOut))"
attr title "outgoing packet lengths"
attr unit b
vector 249 TimeSyncNetwork.detCom.dstt[1].tt[0].macLayer.fcsChecker incomingPacketLengths:vector ETV
attr interpolationmode none
attr recordingmode vector
attr source "packetLength(merge(packetPushedIn, packetPulledIn))"
attr title "incoming packet lengths"
attr unit b
vector 250 TimeSyncNetwork.detCom.dstt[1].tt[0].macLayer.fcsChecker outgoingPacketLengths:vector ETV
attr interpolationmode none
attr recordingmode vector
attr source "packetLength(merge(packetPushedOut, packetPulledOut))"
attr title "outgoing packet lengths"
attr unit b
vector 251 TimeSyncNetwork.detCom.nwtt.tt[1].phyLayer.transmitter transmissionTime:vector ETV
attr interpolationmode none
attr recordingmode vector
attr source packetDuration(transmissionEnded)
attr title "transmission time"
attr unit s
vector 252 TimeSyncNetwork.detCom.dstt[0].gptp peerDelay:vector ETV
attr interpolationmode sample-hold
attr recordingmode vector
vector 253 TimeSyncNetwork.detCom.dstt[1].gptp peerDelay:vector ETV
attr interpolationmode sample-hold
attr recordingmode vector
vector 254 TimeSyncNetwork.detCom.dstt[1].eth[0].macLayer.queue incomingPacketLengths:vector ETV
attr interpolationmode none
attr recordingmode vector
attr source packetLength(packetPushStarted)
attr title "incoming packet lengths"
attr unit b
vector 255 TimeSyncNetwork.detCom.dstt[1].eth[0].macLayer.queue queueLength:vector ETV
attr autoWarmupFilter false
attr interpolationmode sample-hold
attr recordingmode vector
attr source "warmup(atomic(constant0(packetPushEnded) + count(packetPushStarted) - count(packetPulled) - count(packetRemoved) - count(packetDropped)))"
attr title "queue length"
attr unit pk
vector 256 TimeSyncNetwork.detCom.dstt[1].eth[0].macLayer.queue queueBitLength:vector ETV
attr autoWarmupFilter false
attr interpolationmode sample-hold
attr recordingmode vector
attr source "warmup(atomic(constant0(packetPushEnded) + sum(packetLength(packetPushStarted)) - sum(packetLength(packetPulled)) - sum(packetLength(packetRemoved)) - sum(packetLength(packetDropped))))"
attr title "queue bit length"
attr unit b
vector 257 TimeSyncNetwork.detCom.dstt[1].eth[0].macLayer.queue queueingTime:vector ETV
attr interpolationmode none
attr recordingmode vector
attr source queueingTime(packetPulled)
attr title "queueing times"
attr unit s
vector 258 TimeSyncNetwork.detCom.dstt[1].eth[0].macLayer.queue outgoingPacketLengths:vector ETV
attr interpolationmode none
attr recordingmode vector
attr source packetLength(packetPulled)
attr title "outgoing packet lengths"
attr unit b
vector 259 TimeSyncNetwork.detCom.dstt[1].eth[0].macLayer.server incomingPacketLengths:vector ETV
attr interpolationmode none
attr recordingmode vector
attr source packetLength(packetPulled)
attr title "incoming packet lengths"
attr unit b
vector 260 TimeSyncNetwork.detCom.dstt[1].eth[0].macLayer.server outgoingPacketLengths:vector ETV
attr interpolationmode none
attr recordingmode vector
attr source packetLength(packetPushed)
attr title "outgoing packet lengths"
attr unit b
vector 261 TimeSyncNetwork.detCom.dstt[1].eth[0].macLayer.outboundEmitter incomingPacketLengths:vector ETV
attr interpolationmode none
attr recordingmode vector
attr source "packetLength(merge(packetPushedIn, packetPulledIn))"
attr title "incoming packet lengths"
attr unit b
vector 262 TimeSyncNetwork.detCom.dstt[1].eth[0].macLayer.outboundEmitter outgoingPacketLengths:vector ETV
attr interpolationmode none
attr recordingmode vector
attr source "packetLength(merge(packetPushedOut, packetPulledOut))"
attr title "outgoing packet lengths"
attr unit b
vector 263 TimeSyncNetwork.detCom.dstt[1].eth[0].phyLayer.phyHeaderInserter incomingPacketLengths:vector ETV
attr interpolationmode none
attr recordingmode vector
attr source "packetLength(merge(packetPushedIn, packetPulledIn))"
attr title "incoming packet lengths"
attr unit b
vector 264 TimeSyncNetwork.detCom.dstt[1].eth[0].phyLayer.phyHeaderInserter outgoingPacketLengths:vector ETV
attr interpolationmode none
attr recordingmode vector
attr source "packetLength(merge(packetPushedOut, packetPulledOut))"
attr title "outgoing packet lengths"
attr unit b
vector 265 TimeSyncNetwork.detCom.dstt[1].eth[0].phyLayer.outboundEmitter incomingPacketLengths:vector ETV
attr interpolationmode none
attr recordingmode vector
attr source "packetLength(merge(packetPushedIn, packetPulledIn))"
attr title "incoming packet lengths"
attr unit b
vector 266 TimeSyncNetwork.detCom.dstt[1].eth[0].phyLayer.outboundEmitter outgoingPacketLengths:vector ETV
attr interpolationmode none
attr recordingmode vector
attr source "packetLength(merge(packetPushedOut, packetPulledOut))"
attr title "outgoing packet lengths"
attr unit b
vector 267 TimeSyncNetwork.detCom.dstt[0].eth[0].macLayer.queue incomingPacketLengths:vector ETV
attr interpolationmode none
attr recordingmode vector
attr source packetLength(packetPushStarted)
attr title "incoming packet lengths"
attr unit b
vector 268 TimeSyncNetwork.detCom.dstt[0].eth[0].macLayer.queue queueLength:vector ETV
attr autoWarmupFilter false
attr interpolationmode sample-hold
attr recordingmode vector
attr source "warmup(atomic(constant0(packetPushEnded) + count(packetPushStarted) - count(packetPulled) - count(packetRemoved) - count(packetDropped)))"
attr title "queue length"
attr unit pk
vector 269 TimeSyncNetwork.detCom.dstt[0].eth[0].macLayer.queue queueBitLength:vector ETV
attr autoWarmupFilter false
attr interpolationmode sample-hold
attr recordingmode vector
attr source "warmup(atomic(constant0(packetPushEnded) + sum(packetLength(packetPushStarted)) - sum(packetLength(packetPulled)) - sum(packetLength(packetRemoved)) - sum(packetLength(packetDropped))))"
attr title "queue bit length"
attr unit b
vector 270 TimeSyncNetwork.detCom.dstt[0].eth[0].macLayer.queue queueingTime:vector ETV
attr interpolationmode none
attr recordingmode vector
attr source queueingTime(packetPulled)
attr title "queueing times"
attr unit s
vector 271 TimeSyncNetwork.detCom.dstt[0].eth[0].macLayer.queue outgoingPacketLengths:vector ETV
attr interpolationmode none
attr recordingmode vector
attr source packetLength(packetPulled)
attr title "outgoing packet lengths"
attr unit b
vector 272 TimeSyncNetwork.detCom.dstt[0].eth[0].macLayer.server incomingPacketLengths:vector ETV
attr interpolationmode none
attr recordingmode vector
attr source packetLength(packetPulled)
attr title "incoming packet lengths"
attr unit b
vector 273 TimeSyncNetwork.detCom.dstt[0].eth[0].macLayer.server outgoingPacketLengths:vector ETV
attr interpolationmode none
attr recordingmode vector
attr source packetLength(packetPushed)
attr title "outgoing packet lengths"
attr unit b
vector 274 TimeSyncNetwork.detCom.dstt[0].eth[0].macLayer.outboundEmitter incomingPacketLengths:vector ETV
attr interpolationmode none
attr recordingmode vector
attr source "packetLength(merge(packetPushedIn, packetPulledIn))"
attr title "incoming packet lengths"
attr unit b
vector 275 TimeSyncNetwork.detCom.dstt[0].eth[0].macLayer.outboundEmitter outgoingPacketLengths:vector ETV
attr interpolationmode none
attr recordingmode vector
attr source "packetLength(merge(packetPushedOut, packetPulledOut))"
attr title "outgoing packet lengths"
attr unit b
vector 276 TimeSyncNetwork.detCom.dstt[0].eth[0].phyLayer.phyHeaderInserter incomingPacketLengths:vector ETV
attr interpolationmode none
attr recordingmode vector
attr source "packetLength(merge(packetPushedIn, packetPulledIn))"
attr title "incoming packet lengths"
attr unit b
vector 277 TimeSyncNetwork.detCom.dstt[0].eth[0].phyLayer.phyHeaderInserter outgoingPacketLengths:vector ETV
attr interpolationmode none
attr recordingmode vector
attr source "packetLength(merge(packetPushedOut, packetPulledOut))"
attr title "outgoing packet lengths"
attr unit b
vector 278 TimeSyncNetwork.detCom.dstt[0].eth[0].phyLayer.outboundEmitter incomingPacketLengths:vector ETV
attr interpolationmode none
attr recordingmode vector
attr source "packetLength(merge(packetPushedIn, packetPulledIn))"
attr title "incoming packet lengths"
attr unit b
vector 279 TimeSyncNetwork.detCom.dstt[0].eth[0].phyLayer.outboundEmitter outgoingPacketLengths:vector ETV
attr interpolationmode none
attr recordingmode vector
attr source "packetLength(merge(packetPushedOut, packetPulledOut))"
attr title "outgoing packet lengths"
attr unit b
vector 280 TimeSyncNetwork.timeTransmitter.ethernet.macHeaderInserter incomingPacketLengths:vector ETV
attr interpolationmode none
attr recordingmode vector
attr source "packetLength(merge(packetPushedIn, packetPulledIn))"
attr title "incoming packet lengths"
attr unit b
vector 281 TimeSyncNetwork.timeTransmitter.ethernet.macHeaderInserter outgoingPacketLengths:vector ETV
attr interpolationmode none
attr recordingmode vector
attr source "packetLength(merge(packetPushedOut, packetPulledOut))"
attr title "outgoing packet lengths"
attr unit b
vector 282 TimeSyncNetwork.timeTransmitter.ethernet.paddingInserter incomingPacketLengths:vector ETV
attr interpolationmode none
attr recordingmode vector
attr source "packetLength(merge(packetPushedIn, packetPulledIn))"
attr title "incoming packet lengths"
attr unit b
vector 283 TimeSyncNetwork.timeTransmitter.ethernet.paddingInserter outgoingPacketLengths:vector ETV
attr interpolationmode none
attr recordingmode vector
attr source "packetLength(merge(packetPushedOut, packetPulledOut))"
attr title "outgoing packet lengths"
attr unit b
vector 284 TimeSyncNetwork.timeTransmitter.ethernet.fcsInserter incomingPacketLengths:vector ETV
attr interpolationmode none
attr recordingmode vector
attr source "packetLength(merge(packetPushedIn, packetPulledIn))"
attr title "incoming packet lengths"
attr unit b
vector 285 TimeSyncNetwork.timeTransmitter.ethernet.fcsInserter outgoingPacketLengths:vector ETV
attr interpolationmode none
attr recordingmode vector
attr source "packetLength(merge(packetPushedOut, packetPulledOut))"
attr title "outgoing packet lengths"
attr unit b
vector 286 TimeSyncNetwork.timeTransmitter.eth[0].macLayer.queue incomingPacketLengths:vector ETV
attr interpolationmode none
attr recordingmode vector
attr source packetLength(packetPushStarted)
attr title "incoming packet lengths"
attr unit b
vector 287 TimeSyncNetwork.timeTransmitter.eth[0].macLayer.queue queueLength:vector ETV
attr autoWarmupFilter false
attr interpolationmode sample-hold
attr recordingmode vector
attr source "warmup(atomic(constant0(packetPushEnded) + count(packetPushStarted) - count(packetPulled) - count(packetRemoved) - count(packetDropped)))"
attr title "queue length"
attr unit pk
vector 288 TimeSyncNetwork.timeTransmitter.eth[0].macLayer.queue queueBitLength:vector ETV
attr autoWarmupFilter false
attr interpolationmode sample-hold
attr recordingmode vector
[...]
337	284752 34 121 121 0.000028259851 0.000028259851 1 5.0015e-08 5.0015e-08 5.0015e-08 2.501500225e-15
338	284786 68 123 748 0.000028259921 0.999959411553 2 4.9986e-08 5.0429e-08 1.00415e-07 5.041684237e-15
339	284854 64 125 779 0.00002826 0.999985223933 2 4.9978e-08 5.0312e-08 1.0029e-07 5.029097828e-15
340	284918 2401 132 831 0.0125 1 80 0.71589123969898 7.7696454431862 326.09761196747 1674.3890790491
341	287319 153 142 757 0.1 0.9 9 3520 9600 75840 676966400
342	287472 160 142 757 0.1 0.9 9 4640 11840 93760 1032857600
343	287632 160 142 757 0.1 0.9 9 4640 11840 93760 1032857600
344	287792 160 142 757 0.1 0.9 9 4800 12000 94880 1057254400
345	287952 160 142 757 0.1 0.9 9 4800 12000 94880 1057254400
346	288112 160 142 757 0.1 0.9 9 5120 12640 100000 1174092800
347	288272 176 142 832 0.1 1 10 5120 16640 116640 1450982400
348	288448 176 143 832 0.1 1 10 5120 16640 116640 1450982400
349	288624 176 143 832 0.1 1 10 5120 16640 116640 1450982400
350	288800 176 143 832 0.1 1 10 5120 16640 116640 1450982400
351	288976 160 143 758 0.1 0.9 9 5120 12640 100000 1174092800
352	289136 160 143 758 0.1 0.9 9 5120 12640 100000 1174092800
353	289296 160 143 758 0.1 0.9 9 5120 12640 100000 1174092800
354	289456 160 143 758 0.1 0.9 9 5760 13920 110240 1426201600
355	289616 160 143 758 0.1 0.9 9 5760 13920 110240 1426201600
356	289776 160 143 758 0.1 0.9 9 5760 13920 110240 1426201600
357	289936 187 143 758 0.1 0.9 9 0.001144955 0.01392 0.11024 0.0014909510967041
358	290123 174 145 832 0.1 1 10 0 13920 123040 1684044800
359	290297 174 148 832 0.1 1 10 0 13920 123040 1684044800
360	290471 158 148 762 0.1 0.9 9 0 13920 110240 1520204800
361	290629 158 148 762 0.1 0.9 9 0 13920 110240 1520204800
362	290787 158 148 762 0.1 0.9 9 0 13920 110240 1520204800
363	290945 158 148 762 0.1 0.9 9 0 12640 100000 1251097600
364	291103 158 148 762 0.1 0.9 9 0 12640 100000 1251097600
365	291261 158 148 762 0.1 0.9 9 0 12640 100000 1251097600
366	291419 158 148 762 0.1 0.9 9 0 12640 100000 1251097600
367	291577 158 148 762 0.1 0.9 9 0 12640 100000 1251097600
368	291735 158 148 762 0.1 0.9 9 0 23040 111520 1649228800
369	291893 158 148 762 0.1 0.9 9 0 21760 105760 1481497600
370	292051 158 148 762 0.1 0.9 9 0 21760 105760 1481497600
371	292209 151 148 762 0.1 0.9 9 0 17280 85600 965401600
372	292360 151 148 762 0.1 0.9 9 0 17280 85600 965401600
373	292511 151 148 762 0.1 0.9 9 0 17280 85600 965401600
374	292662 494 154 652 0.125014777991 0.875011533423 14 1.52724e-07 5.532448e-06 3.0992087e-05 1.0940429075696e-10
375	293156 261 154 652 0.125014777991 0.875011533423 7 0.99995876452444 1.0000026581591 6.9999617666499 6.9999235350135
376	293417 266 154 652 0.125014777991 0.875011533423 7 0.125014930715 0.875014930395 3.500104513325 2.1876045145027
377	293683 158 155 744 0.1 0.9 9 0 21600 156000 3047040000
378	293841 158 155 744 0.1 0.9 9 0 27200 192960 4665036800
379	293999 158 155 744 0.1 0.9 9 0 27200 192960 4665036800
380	294157 158 155 744 0.1 0.9 9 0 27200 195200 4771840000
381	294315 158 155 744 0.1 0.9 9 0 27200 195200 4771840000
382	294473 158 155 744 0.1 0.9 9 0 28800 205760 5302988800
383	294631 174 155 832 0.1 1 10 0 12640 111520 1383808000
384	294805 174 156 832 0.1 1 10 0 12640 111520 1383808000
385	294979 174 157 832 0.1 1 10 0 12640 111520 1383808000
386	295153 174 157 832 0.1 1 10 0 12640 111520 1383808000
387	295327 174 157 832 0.1 1 10 0 12640 111520 1383808000
388	295501 158 157 819 0.1 0.9 9 0 12640 100000 1251097600
389	295659 158 157 819 0.1 0.9 9 0 12640 100000 1251097600
390	295817 158 157 819 0.1 0.9 9 0 12640 100000 1251097600
391	295975 158 157 819 0.1 0.9 9 0 13920 110240 1520204800
392	296133 158 157 819 0.1 0.9 9 0 13920 110240 1520204800
393	296291 158 157 819 0.1 0.9 9 0 13920 110240 1520204800
394	296449 126 157 819 0.1 0.9 9 0 0 0 0
395	296575 174 158 832 0.1 1 10 0 12640 111520 1383808000
396	296749 174 158 832 0.1 1 10 0 12640 111520 1383808000
397	296923 174 158 832 0.1 1 10 0 12640 111520 1383808000
398	297097 158 158 790 0.1 0.9 9 0 12640 100000 1251097600
399	297255 158 158 790 0.1 0.9 9 0 12640 100000 1251097600
400	297413 158 158 790 0.1 0.9 9 0 12640 100000 1251097600
401	297571 158 158 790 0.1 0.9 9 0 13920 110240 1520204800
402	297729 158 158 790 0.1 0.9 9 0 13920 110240 1520204800
403	297887 158 158 790 0.1 0.9 9 0 13920 110240 1520204800
404	298045 126 158 790 0.1 0.9 9 0 0 0 0
405	298171 174 159 832 0.1 1 10 0 13920 123040 1684044800
406	298345 158 159 820 0.1 0.9 9 0 13920 110240 1520204800
407	298503 158 159 820 0.1 0.9 9 0 13920 110240 1520204800
408	298661 158 159 820 0.1 0.9 9 0 13920 110240 1520204800
409	298819 158 159 820 0.1 0.9 9 0 12640 100000 1251097600
410	298977 158 159 820 0.1 0.9 9 0 12640 100000 1251097600
411	299135 158 159 820 0.1 0.9 9 0 12640 100000 1251097600
412	299293 158 159 820 0.1 0.9 9 0 12640 100000 1251097600
413	299451 158 159 820 0.1 0.9 9 0 12640 100000 1251097600
414	299609 158 159 726 0.1 0.9 9 0 17280 105760 1416985600
415	299767 158 159 726 0.1 0.9 9 0 16320 100320 1274342400
416	299925 158 159 726 0.1 0.9 9 0 16320 100320 1274342400
417	300083 151 159 726 0.1 0.9 9 0 12960 81280 834764800
418	300234 174 160 832 0.1 1 10 0 13920 123040 1684044800
419	300408 174 161 832 0.1 1 10 0 13920 123040 1684044800
420	300582 158 161 791 0.1 0.9 9 0 13920 110240 1520204800
421	300740 158 161 791 0.1 0.9 9 0 13920 110240 1520204800
422	300898 158 161 791 0.1 0.9 9 0 13920 110240 1520204800
423	301056 158 161 791 0.1 0.9 9 0 12640 100000 1251097600
424	301214 158 161 791 0.1 0.9 9 0 12640 100000 1251097600
425	301372 158 161 791 0.1 0.9 9 0 12640 100000 1251097600
426	301530 158 161 791 0.1 0.9 9 0 12640 100000 1251097600
427	301688 158 161 791 0.1 0.9 9 0 12640 100000 1251097600
428	301846 158 161 781 0.1 0.9 9 0 17280 105760 1416985600
429	302004 158 161 781 0.1 0.9 9 0 16320 100320 1274342400
430	302162 158 161 781 0.1 0.9 9 0 16320 100320 1274342400
431	302320 151 161 781 0.1 0.9 9 0 12960 81280 834764800
432	302471 174 162 832 0.1 1 10 0 13920 123040 1684044800
433	302645 151 163 727 0.1 0.9 9 0 12960 81280 834764800
434	302796 151 163 727 0.1 0.9 9 0 12960 81280 834764800
435	302947 151 165 782 0.1 0.9 9 0 12960 81280 834764800
436	303098 151 165 782 0.1 0.9 9 0 12960 81280 834764800
437	303249 499 179 677 0.125014777991 0.875011533423 14 1.52591e-07 3.647649e-06 2.2670744e-05 5.3216606359722e-11
438	303748 261 179 677 0.125014777991 0.875011533423 7 0.99999203798339 1.0000026582311 6.9999950401728 6.9999900804225
439	304009 266 179 677 0.125014777991 0.875011533423 7 0.125014930582 0.875014930262 3.500104512394 2.1876045135717
440	304275 499 180 678 0.125014777991 0.875011533423 14 1.52626e-07 3.647685e-06 2.4872884e-05 6.1351743995042e-11
441	304774 261 180 678 0.125014777991 0.875011533423 7 0.99998323199317 1.0000026582311 6.9999862341746 6.9999724686438
442	305035 265 180 678 0.125014777991 0.875011533423 7 0.125014930617 0.875014930297 3.500104512639 2.1876045138167
443	305300 151 183 733 0.1 0.9 9 0 12960 80160 813081600
444	305451 158 183 733 0.1 0.9 9 0 16320 99200 1247641600
445	305609 158 183 733 0.1 0.9 9 0 16320 99200 1247641600
446	305767 158 183 733 0.1 0.9 9 0 16320 100320 1274342400
447	305925 158 183 733 0.1 0.9 9 0 16320 100320 1274342400
448	306083 158 183 733 0.1 0.9 9 0 17280 105760 1416985600
449	306241 174 183 832 0.1 1 10 0 12640 111520 1383808000
450	306415 151 184 771 0.1 0.9 9 0 12960 80160 813081600
451	306566 158 184 771 0.1 0.9 9 0 16320 99200 1247641600
452	306724 158 184 771 0.1 0.9 9 0 16320 99200 1247641600
453	306882 158 184 771 0.1 0.9 9 0 16320 100320 1274342400
454	307040 158 184 771 0.1 0.9 9 0 16320 100320 1274342400
455	307198 158 184 771 0.1 0.9 9 0 17280 105760 1416985600
456	307356 173 184 832 0.1 1 10 0 12640 105760 1284275200
457	307529 174 185 832 0.1 1 10 0 12640 111520 1383808000
458	307703 174 185 832 0.1 1 10 0 12640 111520 1383808000
459	307877 174 185 832 0.1 1 10 0 12640 111520 1383808000
460	308051 158 185 734 0.1 0.9 9 0 12640 100000 1251097600
461	308209 158 185 734 0.1 0.9 9 0 12640 100000 1251097600
462	308367 158 185 734 0.1 0.9 9 0 12640 100000 1251097600
463	308525 158 185 734 0.1 0.9 9 0 13920 110240 1520204800
464	308683 158 185 734 0.1 0.9 9 0 13920 110240 1520204800
465	308841 158 185 734 0.1 0.9 9 0 13920 110240 1520204800
466	308999 173 185 734 0.1 0.9 9 0 0.01392 0.11024 0.0015202048
467	309172 173 186 832 0.1 1 10 0 12640 105760 1284275200
468	309345 173 186 832 0.1 1 10 0 12640 105760 1284275200
469	309518 173 186 832 0.1 1 10 0 12640 105760 1284275200
470	309691 158 186 813 0.1 0.9 9 0 12640 100000 1251097600
471	309849 158 186 813 0.1 0.9 9 0 12640 100000 1251097600
472	310007 158 186 813 0.1 0.9 9 0 12640 100000 1251097600
473	310165 158 186 813 0.1 0.9 9 0 13920 110240 1520204800
474	310323 158 186 813 0.1 0.9 9 0 13920 110240 1520204800
475	310481 158 186 813 0.1 0.9 9 0 13920 110240 1520204800
476	310639 173 186 813 0.1 0.9 9 0 0.01392 0.11024 0.0015202048
477	310812 174 189 832 0.1 1 10 0 13920 123040 1684044800
478	310986 170 190 832 0.1 1 10 0 13920 110240 1520204800
479	311156 174 197 832 0.1 1 10 0 13920 123040 1684044800
480	311330 158 197 739 0.1 0.9 9 0 13920 110240 1520204800
481	311488 158 197 739 0.1 0.9 9 0 13920 110240 1520204800
482	311646 158 197 739 0.1 0.9 9 0 13920 110240 1520204800
483	311804 158 197 739 0.1 0.9 9 0 12640 100000 1251097600
484	311962 158 197 739 0.1 0.9 9 0 12640 100000 1251097600
485	312120 158 197 739 0.1 0.9 9 0 12640 100000 1251097600
486	312278 158 197 739 0.1 0.9 9 0 12640 100000 1251097600
487	312436 158 197 739 0.1 0.9 9 0 12640 100000 1251097600
488	312594 158 197 739 0.1 0.9 9 0 12640 100000 1251097600
489	312752 158 197 739 0.1 0.9 9 0 12000 94880 1126374400
490	312910 158 197 739 0.1 0.9 9 0 12000 94880 1126374400
491	313068 150 197 739 0.1 0.9 9 0 9760 76960 741452800
492	313218 170 198 832 0.1 1 10 0 13920 110240 1520204800
493	313388 140 198 696 0.1 0.8 8 0 13920 96320 1326438400
494	313528 140 198 696 0.1 0.8 8 0 13920 96320 1326438400
495	313668 140 198 696 0.1 0.8 8 0 13920 96320 1326438400
496	313808 140 198 696 0.1 0.8 8 0 12640 87360 1091328000
497	313948 140 198 696 0.1 0.8 8 0 12640 87360 1091328000
498	314088 140 198 696 0.1 0.8 8 0 12640 87360 1091328000
499	314228 140 198 696 0.1 0.8 8 0 12640 87360 1091328000
500	314368 140 198 696 0.1 0.8 8 0 12640 87360 1091328000
501	314508 140 198 696 0.1 0.8 8 0 12640 87360 1091328000
502	314648 140 198 696 0.1 0.8 8 0 12000 82880 982374400
503	314788 140 198 696 0.1 0.8 8 0 12000 82880 982374400
504	314928 133 198 696 0.1 0.8 8 0 9760 67200 646195200
505	315061 498 209 707 0.125029707991 0.875026463423 14 1.53705e-07 8.760333e-06 3.7454027e-05 2.0071671076624e-10
506	315559 261 209 707 0.125029707991 0.875026463423 7 0.99993295170375 1.0000026582871 6.9999359541652 6.9998719128393
507	315820 265 209 707 0.125029707991 0.875026463423 7 0.125029861696 0.87502986078 3.500209027053 2.187709032205
508	316085 499 210 708 0.125029707991 0.875026463423 14 1.52935e-07 3.647798e-06 2.5370839e-05 6.3860160040345e-11
509	316584 261 210 708 0.125029707991 0.875026463423 7 0.99998124754365 1.0000026582871 6.9999842504131 6.9999685011912
510	316845 264 210 708 0.125029707991 0.875026463423 7 0.125029860926 0.8750298604 3.500209023566 2.1877090292308
511	317109 129 723 723 0.1 0.9 9 0 4320 4320 18662400
512	317238 129 723 723 0.1 0.9 9 0 5440 5440 29593600
513	317367 129 723 723 0.1 0.9 9 0 5440 5440 29593600
514	317496 129 723 723 0.1 0.9 9 0 5440 5440 29593600
515	317625 129 723 723 0.1 0.9 9 0 5440 5440 29593600
516	317754 129 723 723 0.1 0.9 9 0 5760 5760 33177600
517	317883 144 723 832 0.1 1 10 0 5760 11520 66355200
518	318027 144 724 832 0.1 1 10 0 5760 11520 66355200
519	318171 144 724 832 0.1 1 10 0 5760 11520 66355200
520	318315 144 724 832 0.1 1 10 0 5760 11520 66355200
521	318459 129 724 724 0.1 0.9 9 0 5760 5760 33177600
522	318588 129 724 724 0.1 0.9 9 0 5760 5760 33177600
523	318717 129 724 724 0.1 0.9 9 0 5760 5760 33177600
524	318846 129 724 724 0.1 0.9 9 0 6400 6400 40960000
525	318975 129 724 724 0.1 0.9 9 0 6400 6400 40960000
526	319104 129 724 724 0.1 0.9 9 0 6400 6400 40960000
527	319233 131 724 724 0.1 0.9 9 0 0.0064 0.0064 4.096e-05
528	319364 144 725 832 0.1 1 10 0 6400 12800 81920000
529	319508 144 726 832 0.1 1 10 0 6400 12800 81920000
530	319652 129 726 726 0.1 0.9 9 0 6400 6400 40960000
531	319781 129 726 726 0.1 0.9 9 0 6400 6400 40960000
532	319910 129 726 726 0.1 0.9 9 0 6400 6400 40960000
533	320039 129 726 726 0.1 0.9 9 0 5760 5760 33177600
534	320168 129 726 726 0.1 0.9 9 0 5760 5760 33177600
535	320297 129 726 726 0.1 0.9 9 0 5760 5760 33177600
536	320426 129 726 726 0.1 0.9 9 0 5760 5760 33177600
537	320555 129 726 726 0.1 0.9 9 0 5760 5760 33177600
538	320684 144 744 832 0.1 1 10 0 5760 11520 66355200
539	320828 144 745 832 0.1 1 10 0 5760 11520 66355200
540	320972 144 745 832 0.1 1 10 0 5760 11520 66355200
541	321116 144 745 832 0.1 1 10 0 5760 11520 66355200
542	321260 129 745 745 0.1 0.9 9 0 5760 5760 33177600
543	321389 129 745 745 0.1 0.9 9 0 5760 5760 33177600
544	321518 129 745 745 0.1 0.9 9 0 5760 5760 33177600
545	321647 129 745 745 0.1 0.9 9 0 6400 6400 40960000
546	321776 129 745 745 0.1 0.9 9 0 6400 6400 40960000
547	321905 129 745 745 0.1 0.9 9 0 6400 6400 40960000
548	322034 131 745 745 0.1 0.9 9 0 0.0064 0.0064 4.096e-05
549	322165 144 751 832 0.1 1 10 0 6400 12800 81920000
550	322309 144 752 832 0.1 1 10 0 6400 12800 81920000
551	322453 129 752 752 0.1 0.9 9 0 6400 6400 40960000
552	322582 129 752 752 0.1 0.9 9 0 6400 6400 40960000
553	322711 129 752 752 0.1 0.9 9 0 6400 6400 40960000
554	322840 129 752 752 0.1 0.9 9 0 5760 5760 33177600
555	322969 129 752 752 0.1 0.9 9 0 5760 5760 33177600
556	323098 129 752 752 0.1 0.9 9 0 5760 5760 33177600
557	323227 129 752 752 0.1 0.9 9 0 5760 5760 33177600
558	323356 129 752 752 0.1 0.9 9 0 5760 5760 33177600
559	323485 129 752 752 0.1 0.9 9 0 5760 5760 33177600
560	323614 129 752 752 0.1 0.9 9 0 5440 5440 29593600
561	323743 129 752 752 0.1 0.9 9 0 5440 5440 29593600
562	323872 129 752 752 0.1 0.9 9 0 4320 4320 18662400
563	324001 129 767 767 0.1 0.9 9 0 4320 4320 18662400
564	324130 129 767 767 0.1 0.9 9 0 5440 5440 29593600
565	324259 129 767 767 0.1 0.9 9 0 5440 5440 29593600
566	324388 129 767 767 0.1 0.9 9 0 5440 5440 29593600
567	324517 129 767 767 0.1 0.9 9 0 5440 5440 29593600
568	324646 129 767 767 0.1 0.9 9 0 5760 5760 33177600
569	324775 144 767 832 0.1 1 10 0 5760 11520 66355200
570	324919 144 768 832 0.1 1 10 0 5760 11520 66355200
571	325063 144 768 832 0.1 1 10 0 5760 11520 66355200
572	325207 144 768 832 0.1 1 10 0 5760 11520 66355200
573	325351 129 768 768 0.1 0.9 9 0 5760 5760 33177600
574	325480 129 768 768 0.1 0.9 9 0 5760 5760 33177600
575	325609 129 768 768 0.1 0.9 9 0 5760 5760 33177600
576	325738 129 768 768 0.1 0.9 9 0 6400 6400 40960000
577	325867 129 768 768 0.1 0.9 9 0 6400 6400 40960000
578	325996 129 768 768 0.1 0.9 9 0 6400 6400 40960000
579	326125 131 768 768 0.1 0.9 9 0 0.0064 0.0064 4.096e-05
580	326256 144 771 832 0.1 1 10 0 5760 11520 66355200
581	326400 144 772 832 0.1 1 10 0 5760 11520 66355200
582	326544 144 772 832 0.1 1 10 0 5760 11520 66355200
583	326688 144 772 832 0.1 1 10 0 5760 11520 66355200
584	326832 129 772 772 0.1 0.9 9 0 5760 5760 33177600
585	326961 129 772 772 0.1 0.9 9 0 5760 5760 33177600
586	327090 129 772 772 0.1 0.9 9 0 5760 5760 33177600
587	327219 129 772 772 0.1 0.9 9 0 6400 6400 40960000
588	327348 129 772 772 0.1 0.9 9 0 6400 6400 40960000
589	327477 129 772 772 0.1 0.9 9 0 6400 6400 40960000
590	327606 126 772 772 0.1 0.9 9 0 0 0 0
591	327732 144 773 832 0.1 1 10 0 6400 12800 81920000
592	327876 129 773 773 0.1 0.9 9 0 6400 6400 40960000
593	328005 129 773 773 0.1 0.9 9 0 6400 6400 40960000
594	328134 129 773 773 0.1 0.9 9 0 6400 6400 40960000
595	328263 129 773 773 0.1 0.9 9 0 5760 5760 33177600
596	328392 129 773 773 0.1 0.9 9 0 5760 5760 33177600
597	328521 129 773 773 0.1 0.9 9 0 5760 5760 33177600
598	328650 129 773 773 0.1 0.9 9 0 5760 5760 33177600
599	328779 129 773 773 0.1 0.9 9 0 5760 5760 33177600
600	328908 144 774 832 0.1 1 10 0 6400 12800 81920000
601	329052 144 780 832 0.1 1 10 0 6400 12800 81920000
602	329196 144 781 832 0.1 1 10 0 6400 12800 81920000
603	329340 129 781 781 0.1 0.9 9 0 6400 6400 40960000
604	329469 129 781 781 0.1 0.9 9 0 6400 6400 40960000
605	329598 129 781 781 0.1 0.9 9 0 6400 6400 40960000
606	329727 129 781 781 0.1 0.9 9 0 5760 5760 33177600
607	329856 129 781 781 0.1 0.9 9 0 5760 5760 33177600
608	329985 129 781 781 0.1 0.9 9 0 5760 5760 33177600
609	330114 129 781 781 0.1 0.9 9 0 5760 5760 33177600
610	330243 129 781 781 0.1 0.9 9 0 5760 5760 33177600
611	330372 144 804 832 0.1 1 10 0 5760 11520 66355200
612	330516 144 805 832 0.1 1 10 0 5760 11520 66355200
613	330660 144 805 832 0.1 1 10 0 5760 11520 66355200
614	330804 144 805 832 0.1 1 10 0 5760 11520 66355200
615	330948 129 805 805 0.1 0.9 9 0 5760 5760 33177600
616	331077 129 805 805 0.1 0.9 9 0 5760 5760 33177600
617	331206 129 805 805 0.1 0.9 9 0 5760 5760 33177600
618	331335 129 805 805 0.1 0.9 9 0 6400 6400 40960000
619	331464 129 805 805 0.1 0.9 9 0 6400 6400 40960000
620	331593 129 805 805 0.1 0.9 9 0 6400 6400 40960000
621	331722 126 805 805 0.1 0.9 9 0 0 0 0
622	331848 144 806 832 0.1 1 10 0 6400 12800 81920000
623	331992 129 806 806 0.1 0.9 9 0 6400 6400 40960000
624	332121 129 806 806 0.1 0.9 9 0 6400 6400 40960000
625	332250 129 806 806 0.1 0.9 9 0 6400 6400 40960000
626	332379 129 806 806 0.1 0.9 9 0 5760 5760 33177600
627	332508 129 806 806 0.1 0.9 9 0 5760 5760 33177600
628	332637 129 806 806 0.1 0.9 9 0 5760 5760 33177600
629	332766 129 806 806 0.1 0.9 9 0 5760 5760 33177600
630	332895 129 806 806 0.1 0.9 9 0 5760 5760 33177600
631	333024 144 807 832 0.1 1 10 0 6400 12800 81920000
632	333168 138 832 832 0.1 1 10 0 0 0 0
633	333306 138 832 832 0.1 1 10 0 0 0 0
634	333444 138 832 832 0.1 1 10 0 0 0 0
635	333582 138 832 832 0.1 1 10 0 0 0 0
636	333720 138 832 832 0.1 1 10 0 0 0 0
637	333858 138 832 832 0.1 1 10 0 0 0 0
638	333996 138 832 832 0.1 1 10 0 0 0 0
639	334134 138 832 832 0.1 1 10 0 0 0 0
640	334272 138 832 832 0.1 1 10 0 0 0 0
641	334410 138 832 832 0.1 1 10 0 0 0 0
642	334548 138 832 832 0.1 1 10 0 0 0 0
643	334686 138 832 832 0.1 1 10 0 0 0 0
644	334824 138 832 832 0.1 1 10 0 0 0 0
645	334962 138 832 832 0.1 1 10 0 0 0 0
646	335100 138 832 832 0.1 1 10 0 0 0 0
647	335238 138 832 832 0.1 1 10 0 0 0 0
648	335376 138 832 832 0.1 1 10 0 0 0 0
649	335514 138 832 832 0.1 1 10 0 0 0 0
650	335652 138 832 832 0.1 1 10 0 0 0 0
651	335790 138 832 832 0.1 1 10 0 0 0 0
652	335928 138 832 832 0.1 1 10 0 0 0 0
653	336066 138 832 832 0.1 1 10 0 0 0 0
654	336204 138 832 832 0.1 1 10 0 0 0 0
655	336342 138 832 832 0.1 1 10 0 0 0 0
656	336480 138 832 832 0.1 1 10 0 0 0 0
657	336618 138 832 832 0.1 1 10 0 0 0 0
658	336756 138 832 832 0.1 1 10 0 0 0 0
659	336894 138 832 832 0.1 1 10 0 0 0 0
660	337032 138 832 832 0.1 1 10 0 0 0 0
661	337170 138 832 832 0.1 1 10 0 0 0 0
662	337308 138 832 832 0.1 1 10 0 0 0 0
663	337446 138 832 832 0.1 1 10 0 0 0 0
664	337584 138 832 832 0.1 1 10 0 0 0 0
665	337722 138 832 832 0.1 1 10 0 0 0 0
666	337860 138 832 832 0.1 1 10 0 0 0 0
667	337998 138 832 832 0.1 1 10 0 0 0 0
668	338136 138 832 832 0.1 1 10 0 0 0 0
669	338274 138 832 832 0.1 1 10 0 0 0 0
670	338412 138 832 832 0.1 1 10 0 0 0 0
671	338550 138 832 832 0.1 1 10 0 0 0 0
672	338688 138 832 832 0.1 1 10 0 0 0 0
673	338826 138 832 832 0.1 1 10 0 0 0 0
674	338964 138 832 832 0.1 1 10 0 0 0 0
675	339102 138 832 832 0.1 1 10 0 0 0 0
676	339240 138 832 832 0.1 1 10 0 0 0 0
677	339378 138 832 832 0.1 1 10 0 0 0 0
678	339516 138 832 832 0.1 1 10 0 0 0 0
679	339654 138 832 832 0.1 1 10 0 0 0 0
680	339792 138 832 832 0.1 1 10 0 0 0 0
681	339930 138 832 832 0.1 1 10 0 0 0 0
682	340068 138 832 832 0.1 1 10 0 0 0 0
683	340206 138 832 832 0.1 1 10 0 0 0 0
684	340344 138 832 832 0.1 1 10 0 0 0 0
685	340482 138 832 832 0.1 1 10 0 0 0 0

