version 3
run Unidirectional_LeftToRight-0-20250422-11:41:59-1967
attr configname Unidirectional_LeftToRight
attr datetime 20250422-11:41:59
attr datetimef 20250422-114159
attr experiment Unidirectional_LeftToRight
attr inifile omnetpp.ini
attr iterationvars ""
attr iterationvarsd ""
attr iterationvarsf ""
attr measurement ""
attr network Baseline
attr processid 1967
attr repetition 0
attr replication #0
attr resultdir results
attr runnumber 0
attr seedset 0
config image-path ../../../inet/images
config extends General
config network Baseline
config description "Basic configuration for networks with a unidirectional communication from left to right"
config *.detCom.dstt[0].delayUplink "rngProvider(\"histogramContainer\",\"Uplink\")"
config *.device1.numApps 1
config *.device1.app[0].typename UdpSourceApp
config *.device1.app[0].io.destAddress "\"device2\""
config *.device1.app[0].io.destPort 1001
config *.device1.app[0].source.packetLength "1000B - 54B"
config *.device1.app[0].source.productionInterval 10ms
config *.device1.hasOutgoingStreams true
config *.device2.numApps 1
config *.device2.app[0].typename UdpSinkApp
config *.device2.app[0].io.localPort 1001
config sim-time-limit 60s
config description "General configuration"
config **.displayGateSchedules false
config **.gateFilter "\"**.eth[1].**\""
config **.gateScheduleVisualizer.height 16
config **.gateScheduleVisualizer.placementHint "\"top\""
config *.histogramContainer.histograms "{Uplink: \"../../../deterministic6g_data/PD-Wireless-5G-1/s1-UL_wall.xml\", Downlink: \"../../../deterministic6g_data/PD-Wireless-5G-1/s10-DL_wall.xml\"}"
config *.scenarioManager.script "xmldoc(\"scenario.xml\")"

par Baseline.detCom.nwttg$o.channel typename "\"inet.node.ethernet.EthernetLink\""
par Baseline.detCom.nwttg$o.channel disabled false
attr mutable ""
par Baseline.detCom.nwttg$o.channel delay 5e-08s
attr mutable ""
attr unit s
par Baseline.detCom.nwttg$o.channel datarate 0bps
attr mutable ""
attr unit bps
par Baseline.detCom.nwttg$o.channel ber 0
attr mutable ""
par Baseline.detCom.nwttg$o.channel per 0
attr mutable ""
par Baseline.detCom.nwttg$o.channel length 10m
attr unit m
par Baseline.bridge1.ethg$o[0].channel typename "\"inet.node.ethernet.EthernetLink\""
par Baseline.bridge1.ethg$o[0].channel disabled false
attr mutable ""
par Baseline.bridge1.ethg$o[0].channel delay 5e-08s
attr mutable ""
attr unit s
par Baseline.bridge1.ethg$o[0].channel datarate 0bps
attr mutable ""
attr unit bps
par Baseline.bridge1.ethg$o[0].channel ber 0
attr mutable ""
par Baseline.bridge1.ethg$o[0].channel per 0
attr mutable ""
par Baseline.bridge1.ethg$o[0].channel length 10m
attr unit m
par Baseline.bridge1.ethg$o[1].channel typename "\"inet.node.ethernet.EthernetLink\""
par Baseline.bridge1.ethg$o[1].channel disabled false
attr mutable ""
par Baseline.bridge1.ethg$o[1].channel delay 5e-08s
attr mutable ""
attr unit s
par Baseline.bridge1.ethg$o[1].channel datarate 0bps
attr mutable ""
attr unit bps
par Baseline.bridge1.ethg$o[1].channel ber 0
attr mutable ""
par Baseline.bridge1.ethg$o[1].channel per 0
attr mutable ""
par Baseline.bridge1.ethg$o[1].channel length 10m
attr unit m
par Baseline.bridge2.ethg$o[0].channel typename "\"inet.node.ethernet.EthernetLink\""
par Baseline.bridge2.ethg$o[0].channel disabled false
attr mutable ""
par Baseline.bridge2.ethg$o[0].channel delay 5e-08s
attr mutable ""
attr unit s
par Baseline.bridge2.ethg$o[0].channel datarate 0bps
attr mutable ""
attr unit bps
par Baseline.bridge2.ethg$o[0].channel ber 0
attr mutable ""
par Baseline.bridge2.ethg$o[0].channel per 0
attr mutable ""
par Baseline.bridge2.ethg$o[0].channel length 10m
attr unit m
par Baseline.bridge2.ethg$o[1].channel typename "\"inet.node.ethernet.EthernetLink\""
par Baseline.bridge2.ethg$o[1].channel disabled false
attr mutable ""
par Baseline.bridge2.ethg$o[1].channel delay 5e-08s
attr mutable ""
attr unit s
par Baseline.bridge2.ethg$o[1].channel datarate 0bps
attr mutable ""
attr unit bps
par Baseline.bridge2.ethg$o[1].channel ber 0
attr mutable ""
par Baseline.bridge2.ethg$o[1].channel per 0
attr mutable ""
par Baseline.bridge2.ethg$o[1].channel length 10m
attr unit m
par Baseline.device2.ethg$o[0].channel typename "\"inet.node.ethernet.EthernetLink\""
par Baseline.device2.ethg$o[0].channel disabled false
attr mutable ""
par Baseline.device2.ethg$o[0].channel delay 5e-08s
attr mutable ""
attr unit s
par Baseline.device2.ethg$o[0].channel datarate 0bps
attr mutable ""
attr unit bps
par Baseline.device2.ethg$o[0].channel ber 0
attr mutable ""
par Baseline.device2.ethg$o[0].channel per 0
attr mutable ""
par Baseline.device2.ethg$o[0].channel length 10m
attr unit m
par Baseline.visualizer.sceneVisualizer typename "\"inet.visualizer.canvas.scene.SceneCanvasVisualizer\""
par Baseline.visualizer.sceneVisualizer visualizationTargetModule "\"^.^\""
par Baseline.visualizer.sceneVisualizer visualizationSubjectModule "\"^.^\""
par Baseline.visualizer.sceneVisualizer tags "\"\""
par Baseline.visualizer.sceneVisualizer physicalEnvironmentModule "\"physicalEnvironment\""
par Baseline.visualizer.sceneVisualizer networkNodeVisualizerModule "\"^.networkNodeVisualizer\""
par Baseline.visualizer.sceneVisualizer axisLength "nan m"
attr mutable ""
attr unit m
par Baseline.visualizer.sceneVisualizer animationSpeed 0
par Baseline.visualizer.sceneVisualizer sceneMinX "nan m"
attr unit m
par Baseline.visualizer.sceneVisualizer sceneMinY "nan m"
attr unit m
par Baseline.visualizer.sceneVisualizer sceneMinZ "nan m"
attr unit m
par Baseline.visualizer.sceneVisualizer sceneMaxX "nan m"
attr unit m
par Baseline.visualizer.sceneVisualizer sceneMaxY "nan m"
attr unit m
par Baseline.visualizer.sceneVisualizer sceneMaxZ "nan m"
attr unit m
par Baseline.visualizer.sceneVisualizer zIndex 0
par Baseline.visualizer.sceneVisualizer viewAngle "\"x right y down z out\""
attr mutable ""
par Baseline.visualizer.sceneVisualizer viewScale "\"1 1\""
attr mutable ""
par Baseline.visualizer.sceneVisualizer viewTranslation "\"0 0\""
attr mutable ""
par Baseline.visualizer.sceneVisualizer descriptionFigure "\"\""
par Baseline.visualizer.physicalEnvironmentVisualizer typename "\"inet.visualizer.canvas.environment.PhysicalEnvironmentCanvasVisualizer\""
par Baseline.visualizer.physicalEnvironmentVisualizer visualizationTargetModule "\"^.^\""
par Baseline.visualizer.physicalEnvironmentVisualizer visualizationSubjectModule "\"^.^\""
par Baseline.visualizer.physicalEnvironmentVisualizer tags "\"\""
par Baseline.visualizer.physicalEnvironmentVisualizer physicalEnvironmentModule "\"physicalEnvironment\""
par Baseline.visualizer.physicalEnvironmentVisualizer displayObjects true
par Baseline.visualizer.physicalEnvironmentVisualizer zIndex 0
par Baseline.visualizer.networkNodeVisualizer typename "\"inet.visualizer.canvas.scene.NetworkNodeCanvasVisualizer\""
par Baseline.visualizer.networkNodeVisualizer visualizationTargetModule "\"^.^\""
par Baseline.visualizer.networkNodeVisualizer visualizationSubjectModule "\"^.^\""
par Baseline.visualizer.networkNodeVisualizer tags "\"\""
par Baseline.visualizer.networkNodeVisualizer nodeFilter "\"*\""
attr mutable ""
par Baseline.visualizer.networkNodeVisualizer annotationSpacing 4
par Baseline.visualizer.networkNodeVisualizer placementPenalty 10
par Baseline.visualizer.networkNodeVisualizer zIndex 0
par Baseline.visualizer.networkConnectionVisualizer typename "\"inet.visualizer.canvas.scene.NetworkConnectionCanvasVisualizer\""
par Baseline.visualizer.networkConnectionVisualizer visualizationTargetModule "\"^.^\""
par Baseline.visualizer.networkConnectionVisualizer visualizationSubjectModule "\"^.^\""
par Baseline.visualizer.networkConnectionVisualizer tags "\"\""
par Baseline.visualizer.networkConnectionVisualizer displayNetworkConnections true
par Baseline.visualizer.networkConnectionVisualizer nodeFilter "\"\""
attr mutable ""
par Baseline.visualizer.networkConnectionVisualizer lineColor "\"black\""
par Baseline.visualizer.networkConnectionVisualizer lineStyle "\"solid\""
par Baseline.visualizer.networkConnectionVisualizer lineWidth 1
par Baseline.visualizer.networkConnectionVisualizer zIndex 0
par Baseline.visualizer.mobilityVisualizer typename "\"inet.visualizer.canvas.mobility.MobilityCanvasVisualizer\""
par Baseline.visualizer.mobilityVisualizer visualizationTargetModule "\"^.^\""
par Baseline.visualizer.mobilityVisualizer visualizationSubjectModule "\"^.^\""
par Baseline.visualizer.mobilityVisualizer tags "\"\""
par Baseline.visualizer.mobilityVisualizer networkNodeVisualizerModule "\"^.networkNodeVisualizer\""
par Baseline.visualizer.mobilityVisualizer displayMobility true
par Baseline.visualizer.mobilityVisualizer animationSpeed 0
par Baseline.visualizer.mobilityVisualizer moduleFilter "\"**.mobility\""
attr mutable ""
par Baseline.visualizer.mobilityVisualizer displayPositions false
par Baseline.visualizer.mobilityVisualizer positionCircleRadius 4
par Baseline.visualizer.mobilityVisualizer positionCircleLineWidth 1
par Baseline.visualizer.mobilityVisualizer positionCircleLineColor "\"dark\""
attr enum light,dark
par Baseline.visualizer.mobilityVisualizer positionCircleFillColor "\"dark\""
attr enum light,dark
par Baseline.visualizer.mobilityVisualizer displayOrientations false
par Baseline.visualizer.mobilityVisualizer orientationPieRadius 32
par Baseline.visualizer.mobilityVisualizer orientationPieSize 0.2
par Baseline.visualizer.mobilityVisualizer orientationPieOpacity 0.25
par Baseline.visualizer.mobilityVisualizer orientationLineColor "\"black\""
par Baseline.visualizer.mobilityVisualizer orientationLineStyle "\"solid\""
par Baseline.visualizer.mobilityVisualizer orientationLineWidth 1
par Baseline.visualizer.mobilityVisualizer orientationFillColor "\"blue\""
par Baseline.visualizer.mobilityVisualizer displayVelocities false
par Baseline.visualizer.mobilityVisualizer velocityArrowScale 1
par Baseline.visualizer.mobilityVisualizer velocityLineColor "\"black\""
par Baseline.visualizer.mobilityVisualizer velocityLineStyle "\"solid\""
par Baseline.visualizer.mobilityVisualizer velocityLineWidth 1
par Baseline.visualizer.mobilityVisualizer displayMovementTrails false
par Baseline.visualizer.mobilityVisualizer movementTrailLineColor "\"dark\""
attr enum light,dark
par Baseline.visualizer.mobilityVisualizer movementTrailLineStyle "\"solid\""
par Baseline.visualizer.mobilityVisualizer movementTrailLineWidth 1
par Baseline.visualizer.mobilityVisualizer trailLength 100
par Baseline.visualizer.mobilityVisualizer zIndex 0
par Baseline.visualizer.statisticVisualizer typename "\"inet.visualizer.canvas.common.StatisticCanvasVisualizer\""
par Baseline.visualizer.statisticVisualizer visualizationTargetModule "\"^.^\""
par Baseline.visualizer.statisticVisualizer visualizationSubjectModule "\"^.^\""
par Baseline.visualizer.statisticVisualizer tags "\"\""
par Baseline.visualizer.statisticVisualizer networkNodeVisualizerModule "\"^.networkNodeVisualizer\""
par Baseline.visualizer.statisticVisualizer displayStatistics true
par Baseline.visualizer.statisticVisualizer signalName "\"\""
par Baseline.visualizer.statisticVisualizer statisticName "\"\""
par Baseline.visualizer.statisticVisualizer statisticUnit "\"\""
par Baseline.visualizer.statisticVisualizer statisticExpression "\"\""
par Baseline.visualizer.statisticVisualizer sourceFilter "\"**\""
attr mutable ""
par Baseline.visualizer.statisticVisualizer format "\"%n: %v %u\""
attr mutable ""
par Baseline.visualizer.statisticVisualizer unit "\"\""
par Baseline.visualizer.statisticVisualizer font "\"<default>\""
par Baseline.visualizer.statisticVisualizer textColor "\"black\""
par Baseline.visualizer.statisticVisualizer backgroundColor "\"white\""
par Baseline.visualizer.statisticVisualizer opacity 1
par Baseline.visualizer.statisticVisualizer placementHint "\"top\""
par Baseline.visualizer.statisticVisualizer placementPriority 0
par Baseline.visualizer.statisticVisualizer zIndex 10
par Baseline.visualizer.statisticVisualizer propertyName "\"\""
par Baseline.visualizer.statisticVisualizer propertyIndex "\"\""
par Baseline.visualizer.infoVisualizer typename "\"inet.visualizer.canvas.common.InfoCanvasVisualizer\""
par Baseline.visualizer.infoVisualizer visualizationTargetModule "\"^.^\""
par Baseline.visualizer.infoVisualizer visualizationSubjectModule "\"^.^\""
par Baseline.visualizer.infoVisualizer tags "\"\""
par Baseline.visualizer.infoVisualizer networkNodeVisualizerModule "\"^.networkNodeVisualizer\""
par Baseline.visualizer.infoVisualizer displayInfos true
par Baseline.visualizer.infoVisualizer modules "\"\""
attr mutable ""
par Baseline.visualizer.infoVisualizer format "\"%t\""
attr mutable ""
par Baseline.visualizer.infoVisualizer font "\"<default>\""
par Baseline.visualizer.infoVisualizer textColor "\"black\""
par Baseline.visualizer.infoVisualizer backgroundColor "\"white\""
par Baseline.visualizer.infoVisualizer opacity 1
par Baseline.visualizer.infoVisualizer placementHint "\"top\""
par Baseline.visualizer.infoVisualizer placementPriority 0
par Baseline.visualizer.infoVisualizer zIndex 10
par Baseline.visualizer.energyStorageVisualizer typename "\"inet.visualizer.canvas.power.EnergyStorageCanvasVisualizer\""
par Baseline.visualizer.energyStorageVisualizer visualizationTargetModule "\"^.^\""
par Baseline.visualizer.energyStorageVisualizer visualizationSubjectModule "\"^.^\""
par Baseline.visualizer.energyStorageVisualizer tags "\"\""
par Baseline.visualizer.energyStorageVisualizer networkNodeVisualizerModule "\"^.networkNodeVisualizer\""
par Baseline.visualizer.energyStorageVisualizer displayEnergyStorages false
par Baseline.visualizer.energyStorageVisualizer energyStorageFilter "\"**\""
par Baseline.visualizer.energyStorageVisualizer color "\"green\""
par Baseline.visualizer.energyStorageVisualizer width 8
par Baseline.visualizer.energyStorageVisualizer height 24
par Baseline.visualizer.energyStorageVisualizer spacing 2
par Baseline.visualizer.energyStorageVisualizer placementHint "\"right\""
par Baseline.visualizer.energyStorageVisualizer placementPriority 0
par Baseline.visualizer.energyStorageVisualizer zIndex 10
par Baseline.visualizer.mediumVisualizer typename "\"inet.visualizer.canvas.physicallayer.MediumCanvasVisualizer\""
par Baseline.visualizer.mediumVisualizer visualizationTargetModule "\"^.^\""
par Baseline.visualizer.mediumVisualizer visualizationSubjectModule "\"^.^\""
par Baseline.visualizer.mediumVisualizer tags "\"\""
par Baseline.visualizer.mediumVisualizer mediumModule "\"radioMedium\""
par Baseline.visualizer.mediumVisualizer networkNodeVisualizerModule "\"^.networkNodeVisualizer\""
par Baseline.visualizer.mediumVisualizer nodeFilter "\"*\""
attr mutable ""
par Baseline.visualizer.mediumVisualizer interfaceFilter "\"*\""
attr mutable ""
par Baseline.visualizer.mediumVisualizer packetFilter "(omnetpp::cValueHolder)holder: \"*\""
attr mutable ""
par Baseline.visualizer.mediumVisualizer displaySignals false
par Baseline.visualizer.mediumVisualizer signalColor "\"dark\""
attr enum light,dark
par Baseline.visualizer.mediumVisualizer signalPropagationAnimationSpeed "nan "
attr mutable ""
par Baseline.visualizer.mediumVisualizer signalPropagationAnimationTime 1s
attr unit s
par Baseline.visualizer.mediumVisualizer signalPropagationAdditionalTime 0s
attr unit s
par Baseline.visualizer.mediumVisualizer signalTransmissionAnimationSpeed "nan "
attr mutable ""
par Baseline.visualizer.mediumVisualizer signalTransmissionAnimationTime 1s
attr unit s
par Baseline.visualizer.mediumVisualizer signalAnimationSpeedChangeTimeMode "\"realTime\""
attr enum realTime,animationTime,simulationTime
par Baseline.visualizer.mediumVisualizer signalAnimationSpeedChangeTime 1s
attr unit s
par Baseline.visualizer.mediumVisualizer displaySignalDepartures false
par Baseline.visualizer.mediumVisualizer signalDepartureImage "\"misc/signal_departure.png\""
par Baseline.visualizer.mediumVisualizer signalDeparturePlacementHint "\"topCenter\""
par Baseline.visualizer.mediumVisualizer signalDeparturePlacementPriority 1
par Baseline.visualizer.mediumVisualizer displaySignalArrivals false
par Baseline.visualizer.mediumVisualizer signalArrivalImage "\"misc/signal_arrival.png\""
par Baseline.visualizer.mediumVisualizer signalArrivalPlacementHint "\"topCenter\""
par Baseline.visualizer.mediumVisualizer signalArrivalPlacementPriority -1
par Baseline.visualizer.mediumVisualizer displayCommunicationRanges false
par Baseline.visualizer.mediumVisualizer communicationRangeLineColor "\"blue\""
par Baseline.visualizer.mediumVisualizer communicationRangeLineStyle "\"solid\""
par Baseline.visualizer.mediumVisualizer communicationRangeLineWidth 1
par Baseline.visualizer.mediumVisualizer displayInterferenceRanges false
par Baseline.visualizer.mediumVisualizer interferenceRangeLineColor "\"gray\""
par Baseline.visualizer.mediumVisualizer interferenceRangeLineStyle "\"solid\""
par Baseline.visualizer.mediumVisualizer interferenceRangeLineWidth 1
par Baseline.visualizer.mediumVisualizer autoPowerAxis true
par Baseline.visualizer.mediumVisualizer signalMinPower "inf dBmW"
attr unit dBmW
par Baseline.visualizer.mediumVisualizer signalMaxPower 0dBmW
attr unit dBmW
par Baseline.visualizer.mediumVisualizer signalMinPowerDensity "inf dBmWpMHz"
attr unit dBmWpMHz
par Baseline.visualizer.mediumVisualizer signalMaxPowerDensity "-inf dBmWpMHz"
attr unit dBmWpMHz
par Baseline.visualizer.mediumVisualizer autoTimeAxis true
par Baseline.visualizer.mediumVisualizer signalMinTime 0s
attr unit s
par Baseline.visualizer.mediumVisualizer signalMaxTime 0s
attr unit s
par Baseline.visualizer.mediumVisualizer autoFrequencyAxis true
par Baseline.visualizer.mediumVisualizer signalMinFrequency "inf Hz"
attr unit Hz
par Baseline.visualizer.mediumVisualizer signalMaxFrequency "-inf Hz"
attr unit Hz
par Baseline.visualizer.mediumVisualizer displayMainPowerDensityMap false
par Baseline.visualizer.mediumVisualizer mainPowerDensityMapPixmapDensity 1
par Baseline.visualizer.mediumVisualizer mainPowerDensityMapMinX 0
par Baseline.visualizer.mediumVisualizer mainPowerDensityMapMaxX "nan "
par Baseline.visualizer.mediumVisualizer mainPowerDensityMapMinY 0
par Baseline.visualizer.mediumVisualizer mainPowerDensityMapMaxY "nan "
par Baseline.visualizer.mediumVisualizer mainPowerDensityMapZ 0
par Baseline.visualizer.mediumVisualizer mainPowerDensityMapFigureXTickCount 3
par Baseline.visualizer.mediumVisualizer mainPowerDensityMapFigureYTickCount 3
par Baseline.visualizer.mediumVisualizer displayPowerDensityMaps false
par Baseline.visualizer.mediumVisualizer powerDensityMapMode "\"auto\""
attr enum total,signal,auto
par Baseline.visualizer.mediumVisualizer powerDensityMapPixelMode "\"mean\""
attr enum sample,partition,mean
par Baseline.visualizer.mediumVisualizer powerDensityMapApproximationSize 10
par Baseline.visualizer.mediumVisualizer powerDensityMapCenterFrequency "nan Hz"
attr mutable ""
attr unit Hz
par Baseline.visualizer.mediumVisualizer powerDensityMapBandwidth 0Hz
attr mutable ""
attr unit Hz
par Baseline.visualizer.mediumVisualizer powerDensityMapFigureWidth 200
par Baseline.visualizer.mediumVisualizer powerDensityMapFigureHeight 120
par Baseline.visualizer.mediumVisualizer powerDensityMapPixmapWidth 200
par Baseline.visualizer.mediumVisualizer powerDensityMapPixmapHeight 120
par Baseline.visualizer.mediumVisualizer powerDensityMapZ 0
par Baseline.visualizer.mediumVisualizer powerDensityMapFigureXTickCount 3
par Baseline.visualizer.mediumVisualizer powerDensityMapFigureYTickCount 3
par Baseline.visualizer.mediumVisualizer displaySpectrums false
par Baseline.visualizer.mediumVisualizer spectrumMode "\"auto\""
attr enum total,signal,auto
par Baseline.visualizer.mediumVisualizer spectrumFigureWidth 200
par Baseline.visualizer.mediumVisualizer spectrumFigureHeight 120
par Baseline.visualizer.mediumVisualizer spectrumFigureXTickCount 3
par Baseline.visualizer.mediumVisualizer spectrumFigureYTickCount 5
par Baseline.visualizer.mediumVisualizer spectrumFigureInterpolationSize 5
par Baseline.visualizer.mediumVisualizer spectrumPlacementHint "\"bottomCenter\""
par Baseline.visualizer.mediumVisualizer spectrumPlacementPriority -1
par Baseline.visualizer.mediumVisualizer displaySpectrograms false
par Baseline.visualizer.mediumVisualizer spectrogramMode "\"auto\""
attr enum total,signal,auto
par Baseline.visualizer.mediumVisualizer spectrogramPixelMode "\"mean\""
attr enum sample,partition,mean
par Baseline.visualizer.mediumVisualizer spectrogramFigureWidth 200
par Baseline.visualizer.mediumVisualizer spectrogramFigureHeight 120
par Baseline.visualizer.mediumVisualizer spectrogramPixmapWidth 200
par Baseline.visualizer.mediumVisualizer spectrogramPixmapHeight 120
par Baseline.visualizer.mediumVisualizer spectrogramFigureXTickCount 3
par Baseline.visualizer.mediumVisualizer spectrogramFigureYTickCount 5
par Baseline.visualizer.mediumVisualizer spectrogramPlacementHint "\"bottomCenter\""
par Baseline.visualizer.mediumVisualizer spectrogramPlacementPriority -1
par Baseline.visualizer.mediumVisualizer zIndex 0
par Baseline.visualizer.mediumVisualizer signalShape "\"ring\""
attr enum ring,sphere
par Baseline.visualizer.mediumVisualizer signalOpacity 0.5
par Baseline.visualizer.mediumVisualizer signalRingCount 20
par Baseline.visualizer.mediumVisualizer signalRingSize 50m
attr unit m
par Baseline.visualizer.mediumVisualizer signalFadingDistance 50m
attr unit m
par Baseline.visualizer.mediumVisualizer signalFadingFactor 1.2
par Baseline.visualizer.mediumVisualizer signalWaveCount 20
par Baseline.visualizer.mediumVisualizer signalWaveLength 50m
attr unit m
par Baseline.visualizer.mediumVisualizer signalWaveWidth 10m
attr unit m
par Baseline.visualizer.mediumVisualizer signalWaveFadingAnimationSpeedFactor 1
par Baseline.visualizer.mediumVisualizer displayCommunicationHeat false
par Baseline.visualizer.obstacleLossVisualizer typename "\"inet.visualizer.canvas.physicallayer.TracingObstacleLossCanvasVisualizer\""
par Baseline.visualizer.obstacleLossVisualizer visualizationTargetModule "\"^.^\""
par Baseline.visualizer.obstacleLossVisualizer visualizationSubjectModule "\"^.^\""
par Baseline.visualizer.obstacleLossVisualizer tags "\"\""
par Baseline.visualizer.obstacleLossVisualizer displayIntersections false
par Baseline.visualizer.obstacleLossVisualizer intersectionLineColor "\"red\""
par Baseline.visualizer.obstacleLossVisualizer intersectionLineStyle "\"solid\""
par Baseline.visualizer.obstacleLossVisualizer intersectionLineWidth 1
par Baseline.visualizer.obstacleLossVisualizer displayFaceNormalVectors false
par Baseline.visualizer.obstacleLossVisualizer faceNormalLineColor "\"grey\""
par Baseline.visualizer.obstacleLossVisualizer faceNormalLineStyle "\"solid\""
par Baseline.visualizer.obstacleLossVisualizer faceNormalLineWidth 1
par Baseline.visualizer.obstacleLossVisualizer fadeOutMode "\"realTime\""
attr enum realTime,animationTime,simulationTime
par Baseline.visualizer.obstacleLossVisualizer fadeOutTime 1s
attr unit s
par Baseline.visualizer.obstacleLossVisualizer fadeOutAnimationSpeed 0
par Baseline.visualizer.obstacleLossVisualizer zIndex 0
par Baseline.visualizer.packetDropVisualizer typename "\"inet.visualizer.canvas.common.PacketDropCanvasVisualizer\""
par Baseline.visualizer.packetDropVisualizer visualizationTargetModule "\"^.^\""
par Baseline.visualizer.packetDropVisualizer visualizationSubjectModule "\"^.^\""
par Baseline.visualizer.packetDropVisualizer tags "\"\""
par Baseline.visualizer.packetDropVisualizer displayPacketDrops false
par Baseline.visualizer.packetDropVisualizer nodeFilter "\"*\""
attr mutable ""
par Baseline.visualizer.packetDropVisualizer interfaceFilter "\"*\""
attr mutable ""
par Baseline.visualizer.packetDropVisualizer packetFilter "(omnetpp::cValueHolder)holder: \"*\""
attr mutable ""
par Baseline.visualizer.packetDropVisualizer detailsFilter "\"*\""
attr mutable ""
par Baseline.visualizer.packetDropVisualizer icon "\"msg/packet_s\""
par Baseline.visualizer.packetDropVisualizer iconTintAmount 1
par Baseline.visualizer.packetDropVisualizer iconTintColor "\"dark\""
par Baseline.visualizer.packetDropVisualizer labelFormat "\"%n\""
attr mutable ""
par Baseline.visualizer.packetDropVisualizer labelFont "\"<default>\""
par Baseline.visualizer.packetDropVisualizer labelColor "\"black\""
par Baseline.visualizer.packetDropVisualizer fadeOutMode "\"realTime\""
attr enum realTime,animationTime,simulationTime
par Baseline.visualizer.packetDropVisualizer fadeOutTime 1s
attr unit s
par Baseline.visualizer.packetDropVisualizer fadeOutAnimationSpeed 0
par Baseline.visualizer.packetDropVisualizer zIndex 10
par Baseline.visualizer.packetDropVisualizer dx 32
par Baseline.visualizer.packetDropVisualizer dy 64
par Baseline.visualizer.packetFlowVisualizer typename "\"inet.visualizer.canvas.flow.PacketFlowCanvasVisualizer\""
par Baseline.visualizer.packetFlowVisualizer visualizationTargetModule "\"^.^\""
par Baseline.visualizer.packetFlowVisualizer visualizationSubjectModule "\"^.^\""
par Baseline.visualizer.packetFlowVisualizer tags "\"\""
par Baseline.visualizer.packetFlowVisualizer displayRoutes false
par Baseline.visualizer.packetFlowVisualizer startPathSignal "\"packetFlowStarted\""
par Baseline.visualizer.packetFlowVisualizer extendPathSignal "\"packetReceivedFromLower\""
par Baseline.visualizer.packetFlowVisualizer endPathSignal "\"packetFlowEnded\""
par Baseline.visualizer.packetFlowVisualizer nodeFilter "\"*\""
attr mutable ""
par Baseline.visualizer.packetFlowVisualizer packetFilter "(omnetpp::cValueHolder)holder: \"*\""
attr mutable ""
par Baseline.visualizer.packetFlowVisualizer lineColor "\"dark\""
attr enum light,dark
par Baseline.visualizer.packetFlowVisualizer lineStyle "\"dashed\""
par Baseline.visualizer.packetFlowVisualizer lineWidth 3
par Baseline.visualizer.packetFlowVisualizer lineSmooth false
par Baseline.visualizer.packetFlowVisualizer lineShift 16
par Baseline.visualizer.packetFlowVisualizer lineShiftMode "\"normal\""
par Baseline.visualizer.packetFlowVisualizer lineContactSpacing 3
par Baseline.visualizer.packetFlowVisualizer lineContactMode "\"rectangular\""
attr enum circular,rectangular
par Baseline.visualizer.packetFlowVisualizer labelFormat "\"%L %p pk (%l)\""
par Baseline.visualizer.packetFlowVisualizer labelFont "\"<default>, 8px\""
par Baseline.visualizer.packetFlowVisualizer labelColor "\"\""
par Baseline.visualizer.packetFlowVisualizer fadeOutMode "\"realTime\""
attr enum realTime,animationTime,simulationTime
par Baseline.visualizer.packetFlowVisualizer fadeOutTime 0s
attr unit s
par Baseline.visualizer.packetFlowVisualizer fadeOutAnimationSpeed 0
par Baseline.visualizer.packetFlowVisualizer zIndex 4
par Baseline.visualizer.queueVisualizer typename "\"inet.visualizer.canvas.common.QueueCanvasVisualizer\""
par Baseline.visualizer.queueVisualizer visualizationTargetModule "\"^.^\""
par Baseline.visualizer.queueVisualizer visualizationSubjectModule "\"^.^\""
par Baseline.visualizer.queueVisualizer tags "\"\""
par Baseline.visualizer.queueVisualizer networkNodeVisualizerModule "\"^.networkNodeVisualizer\""
par Baseline.visualizer.queueVisualizer displayQueues false
par Baseline.visualizer.queueVisualizer queueFilter "\"**\""
par Baseline.visualizer.queueVisualizer color "\"blue\""
par Baseline.visualizer.queueVisualizer width 8
par Baseline.visualizer.queueVisualizer height 24
par Baseline.visualizer.queueVisualizer spacing 2
par Baseline.visualizer.queueVisualizer placementHint "\"right\""
par Baseline.visualizer.queueVisualizer placementPriority 0
par Baseline.visualizer.queueVisualizer zIndex 10
par Baseline.visualizer.gateScheduleVisualizer typename "\"inet.visualizer.canvas.common.GateScheduleCanvasVisualizer\""
par Baseline.visualizer.gateScheduleVisualizer visualizationTargetModule "\"^.^\""
par Baseline.visualizer.gateScheduleVisualizer visualizationSubjectModule "\"^.^\""
par Baseline.visualizer.gateScheduleVisualizer tags "\"\""
par Baseline.visualizer.gateScheduleVisualizer networkNodeVisualizerModule "\"^.networkNodeVisualizer\""
par Baseline.visualizer.gateScheduleVisualizer displayGateSchedules false
par Baseline.visualizer.gateScheduleVisualizer labelFormat "\"%i %D\""
par Baseline.visualizer.gateScheduleVisualizer gateFilter "\"**.eth[1].**\""
par Baseline.visualizer.gateScheduleVisualizer width 100
par Baseline.visualizer.gateScheduleVisualizer height 16
par Baseline.visualizer.gateScheduleVisualizer spacing 2
par Baseline.visualizer.gateScheduleVisualizer placementHint "\"top\""
par Baseline.visualizer.gateScheduleVisualizer placementPriority 0
par Baseline.visualizer.gateScheduleVisualizer displayDuration 0s
attr mutable ""
attr unit s
par Baseline.visualizer.gateScheduleVisualizer currentTimePosition 50
par Baseline.visualizer.gateScheduleVisualizer zIndex 10
par Baseline.visualizer.radioVisualizer typename "\"inet.visualizer.canvas.physicallayer.RadioCanvasVisualizer\""
par Baseline.visualizer.radioVisualizer visualizationTargetModule "\"^.^\""
par Baseline.visualizer.radioVisualizer visualizationSubjectModule "\"^.^\""
par Baseline.visualizer.radioVisualizer tags "\"\""
par Baseline.visualizer.radioVisualizer networkNodeVisualizerModule "\"^.networkNodeVisualizer\""
par Baseline.visualizer.radioVisualizer displayRadios false
par Baseline.visualizer.radioVisualizer displayRadioMode true
par Baseline.visualizer.radioVisualizer displayReceptionState true
par Baseline.visualizer.radioVisualizer displayTransmissionState true
par Baseline.visualizer.radioVisualizer displayAntennaLobes false
par Baseline.visualizer.radioVisualizer radioFilter "\"**\""
attr mutable ""
par Baseline.visualizer.radioVisualizer radioModeImages "\"block/process_vs block/timer_vs block/wrx_vs block/wtx_vs block/wrxtx_vs block/cogwheel_vs\""
par Baseline.visualizer.radioVisualizer receptionStateImages "\"- - misc/receiving misc/receiving\""
par Baseline.visualizer.radioVisualizer transmissionStateImages "\"- - misc/transmitting\""
par Baseline.visualizer.radioVisualizer width 16
par Baseline.visualizer.radioVisualizer height 16
par Baseline.visualizer.radioVisualizer placementHint "\"bottomRight\""
par Baseline.visualizer.radioVisualizer placementPriority 0
par Baseline.visualizer.radioVisualizer antennaLobeNormalize false
par Baseline.visualizer.radioVisualizer antennaLobeRelativeLabels false
par Baseline.visualizer.radioVisualizer antennaLobePlaneGlobal true
par Baseline.visualizer.radioVisualizer antennaLobePlane "\"view\""
attr enum view,xy,xz,yz
par Baseline.visualizer.radioVisualizer antennaLobeMode "\"logarithmic\""
attr enum logarithmic,linear
par Baseline.visualizer.radioVisualizer antennaLobeLogarithmicBase 10
par Baseline.visualizer.radioVisualizer antennaLobeLogarithmicScale 100
par Baseline.visualizer.radioVisualizer antennaLobeRadius 100
par Baseline.visualizer.radioVisualizer antennaLobeStep 10deg
attr unit deg
par Baseline.visualizer.radioVisualizer antennaLobeOpacity 0.25
par Baseline.visualizer.radioVisualizer antennaLobeLineSmooth true
par Baseline.visualizer.radioVisualizer antennaLobeLineColor "\"black\""
par Baseline.visualizer.radioVisualizer antennaLobeLineStyle "\"solid\""
par Baseline.visualizer.radioVisualizer antennaLobeLineWidth 1
par Baseline.visualizer.radioVisualizer antennaLobeFillColor "\"white\""
par Baseline.visualizer.radioVisualizer zIndex 10
par Baseline.visualizer.physicalLinkVisualizer typename "\"inet.visualizer.canvas.physicallayer.PhysicalLinkCanvasVisualizer\""
par Baseline.visualizer.physicalLinkVisualizer visualizationTargetModule "\"^.^\""
par Baseline.visualizer.physicalLinkVisualizer visualizationSubjectModule "\"^.^\""
par Baseline.visualizer.physicalLinkVisualizer tags "\"\""
par Baseline.visualizer.physicalLinkVisualizer displayLinks false
par Baseline.visualizer.physicalLinkVisualizer activityLevel "\"service\""
attr enum service,peer,protocol
par Baseline.visualizer.physicalLinkVisualizer nodeFilter "\"*\""
attr mutable ""
par Baseline.visualizer.physicalLinkVisualizer interfaceFilter "\"*\""
attr mutable ""
par Baseline.visualizer.physicalLinkVisualizer packetFilter "(omnetpp::cValueHolder)holder: \"*\""
attr mutable ""
par Baseline.visualizer.physicalLinkVisualizer lineColor "\"olive\""
par Baseline.visualizer.physicalLinkVisualizer lineStyle "\"dotted\""
par Baseline.visualizer.physicalLinkVisualizer lineWidth 3
par Baseline.visualizer.physicalLinkVisualizer lineShift 16
par Baseline.visualizer.physicalLinkVisualizer lineShiftMode "\"normal\""
par Baseline.visualizer.physicalLinkVisualizer lineContactSpacing 3
par Baseline.visualizer.physicalLinkVisualizer lineContactMode "\"rectangular\""
attr enum circular,rectangular
par Baseline.visualizer.physicalLinkVisualizer labelFormat "\"%n\""
par Baseline.visualizer.physicalLinkVisualizer labelFont "\"<default>, 8px\""
par Baseline.visualizer.physicalLinkVisualizer labelColor "\"olive\""
par Baseline.visualizer.physicalLinkVisualizer fadeOutMode "\"realTime\""
attr enum realTime,animationTime,simulationTime
par Baseline.visualizer.physicalLinkVisualizer fadeOutTime 1s
attr unit s
par Baseline.visualizer.physicalLinkVisualizer fadeOutAnimationSpeed 0
par Baseline.visualizer.physicalLinkVisualizer holdAnimationTime 0s
attr unit s
par Baseline.visualizer.physicalLinkVisualizer zIndex 1
par Baseline.visualizer.interfaceTableVisualizer typename "\"inet.visualizer.canvas.linklayer.InterfaceTableCanvasVisualizer\""
par Baseline.visualizer.interfaceTableVisualizer visualizationTargetModule "\"^.^\""
par Baseline.visualizer.interfaceTableVisualizer visualizationSubjectModule "\"^.^\""
par Baseline.visualizer.interfaceTableVisualizer tags "\"\""
par Baseline.visualizer.interfaceTableVisualizer networkNodeVisualizerModule "\"^.networkNodeVisualizer\""
par Baseline.visualizer.interfaceTableVisualizer displayInterfaceTables false
par Baseline.visualizer.interfaceTableVisualizer displayWiredInterfacesAtConnections true
par Baseline.visualizer.interfaceTableVisualizer displayBackground false
par Baseline.visualizer.interfaceTableVisualizer nodeFilter "\"*\""
attr mutable ""
par Baseline.visualizer.interfaceTableVisualizer interfaceFilter "\"not(lo*)\""
attr mutable ""
par Baseline.visualizer.interfaceTableVisualizer format "\"%N %\\\\%a%/%l\""
attr mutable ""
par Baseline.visualizer.interfaceTableVisualizer placementHint "\"top\""
par Baseline.visualizer.interfaceTableVisualizer placementPriority 0
par Baseline.visualizer.interfaceTableVisualizer font "\"<default>\""
par Baseline.visualizer.interfaceTableVisualizer textColor "\"#005030\""
par Baseline.visualizer.interfaceTableVisualizer backgroundColor "\"white\""
par Baseline.visualizer.interfaceTableVisualizer opacity 1
par Baseline.visualizer.interfaceTableVisualizer zIndex 10
par Baseline.visualizer.dataLinkVisualizer typename "\"inet.visualizer.canvas.linklayer.DataLinkCanvasVisualizer\""
par Baseline.visualizer.dataLinkVisualizer visualizationTargetModule "\"^.^\""
par Baseline.visualizer.dataLinkVisualizer visualizationSubjectModule "\"^.^\""
par Baseline.visualizer.dataLinkVisualizer tags "\"\""
par Baseline.visualizer.dataLinkVisualizer displayLinks false
par Baseline.visualizer.dataLinkVisualizer activityLevel "\"service\""
attr enum service,peer,protocol
par Baseline.visualizer.dataLinkVisualizer nodeFilter "\"*\""
attr mutable ""
par Baseline.visualizer.dataLinkVisualizer interfaceFilter "\"*\""
attr mutable ""
par Baseline.visualizer.dataLinkVisualizer packetFilter "(omnetpp::cValueHolder)holder: \"*\""
attr mutable ""
par Baseline.visualizer.dataLinkVisualizer lineColor "\"darkcyan\""
par Baseline.visualizer.dataLinkVisualizer lineStyle "\"solid\""
par Baseline.visualizer.dataLinkVisualizer lineWidth 3
par Baseline.visualizer.dataLinkVisualizer lineShift 16
par Baseline.visualizer.dataLinkVisualizer lineShiftMode "\"normal\""
par Baseline.visualizer.dataLinkVisualizer lineContactSpacing 3
par Baseline.visualizer.dataLinkVisualizer lineContactMode "\"rectangular\""
attr enum circular,rectangular
par Baseline.visualizer.dataLinkVisualizer labelFormat "\"%n\""
par Baseline.visualizer.dataLinkVisualizer labelFont "\"<default>, 8px\""
par Baseline.visualizer.dataLinkVisualizer labelColor "\"darkcyan\""
par Baseline.visualizer.dataLinkVisualizer fadeOutMode "\"realTime\""
attr enum realTime,animationTime,simulationTime
par Baseline.visualizer.dataLinkVisualizer fadeOutTime 1s
attr unit s
par Baseline.visualizer.dataLinkVisualizer fadeOutAnimationSpeed 0
par Baseline.visualizer.dataLinkVisualizer holdAnimationTime 0s
attr unit s
par Baseline.visualizer.dataLinkVisualizer zIndex 2
par Baseline.visualizer.linkBreakVisualizer typename "\"inet.visualizer.canvas.linklayer.LinkBreakCanvasVisualizer\""
par Baseline.visualizer.linkBreakVisualizer visualizationTargetModule "\"^.^\""
par Baseline.visualizer.linkBreakVisualizer visualizationSubjectModule "\"^.^\""
par Baseline.visualizer.linkBreakVisualizer tags "\"\""
par Baseline.visualizer.linkBreakVisualizer displayLinkBreaks false
par Baseline.visualizer.linkBreakVisualizer nodeFilter "\"*\""
attr mutable ""
par Baseline.visualizer.linkBreakVisualizer interfaceFilter "\"*\""
attr mutable ""
par Baseline.visualizer.linkBreakVisualizer packetFilter "(omnetpp::cValueHolder)holder: \"*\""
attr mutable ""
par Baseline.visualizer.linkBreakVisualizer icon "\"status/stop\""
par Baseline.visualizer.linkBreakVisualizer iconTintAmount 0
par Baseline.visualizer.linkBreakVisualizer iconTintColor "\"\""
par Baseline.visualizer.linkBreakVisualizer fadeOutMode "\"realTime\""
attr enum realTime,animationTime,simulationTime
par Baseline.visualizer.linkBreakVisualizer fadeOutTime 1s
attr unit s
par Baseline.visualizer.linkBreakVisualizer fadeOutAnimationSpeed 0
par Baseline.visualizer.linkBreakVisualizer zIndex 2
par Baseline.visualizer.ieee80211Visualizer typename "\"inet.visualizer.canvas.linklayer.Ieee80211CanvasVisualizer\""
par Baseline.visualizer.ieee80211Visualizer visualizationTargetModule "\"^.^\""
par Baseline.visualizer.ieee80211Visualizer visualizationSubjectModule "\"^.^\""
par Baseline.visualizer.ieee80211Visualizer tags "\"\""
par Baseline.visualizer.ieee80211Visualizer networkNodeVisualizerModule "\"^.networkNodeVisualizer\""
par Baseline.visualizer.ieee80211Visualizer displayAssociations false
par Baseline.visualizer.ieee80211Visualizer nodeFilter "\"*\""
attr mutable ""
par Baseline.visualizer.ieee80211Visualizer interfaceFilter "\"*\""
attr mutable ""
par Baseline.visualizer.ieee80211Visualizer minPower -85dBm
attr unit dBm
par Baseline.visualizer.ieee80211Visualizer maxPower -50dBm
attr unit dBm
par Baseline.visualizer.ieee80211Visualizer icons "\"misc/signal_power_0 misc/signal_power_1 misc/signal_power_2 misc/signal_power_3\""
par Baseline.visualizer.ieee80211Visualizer iconColor "\"dark\""
attr enum light,dark
par Baseline.visualizer.ieee80211Visualizer labelFont "\"<default>\""
par Baseline.visualizer.ieee80211Visualizer labelColor "\"black\""
par Baseline.visualizer.ieee80211Visualizer placementHint "\"top\""
par Baseline.visualizer.ieee80211Visualizer placementPriority 0
par Baseline.visualizer.ieee80211Visualizer zIndex 2
par Baseline.visualizer.networkRouteVisualizer typename "\"inet.visualizer.canvas.networklayer.NetworkRouteCanvasVisualizer\""
par Baseline.visualizer.networkRouteVisualizer visualizationTargetModule "\"^.^\""
par Baseline.visualizer.networkRouteVisualizer visualizationSubjectModule "\"^.^\""
par Baseline.visualizer.networkRouteVisualizer tags "\"\""
par Baseline.visualizer.networkRouteVisualizer displayRoutes false
par Baseline.visualizer.networkRouteVisualizer startPathSignal "\"packetReceivedFromUpper\""
par Baseline.visualizer.networkRouteVisualizer extendPathSignal "\"packetReceivedFromLower\""
par Baseline.visualizer.networkRouteVisualizer endPathSignal "\"packetSentToUpper\""
par Baseline.visualizer.networkRouteVisualizer nodeFilter "\"*\""
attr mutable ""
par Baseline.visualizer.networkRouteVisualizer packetFilter "(omnetpp::cValueHolder)holder: \"*\""
attr mutable ""
par Baseline.visualizer.networkRouteVisualizer lineColor "\"dark\""
attr enum light,dark
par Baseline.visualizer.networkRouteVisualizer lineStyle "\"solid\""
par Baseline.visualizer.networkRouteVisualizer lineWidth 3
par Baseline.visualizer.networkRouteVisualizer lineSmooth false
par Baseline.visualizer.networkRouteVisualizer lineShift 16
par Baseline.visualizer.networkRouteVisualizer lineShiftMode "\"normal\""
par Baseline.visualizer.networkRouteVisualizer lineContactSpacing 3
par Baseline.visualizer.networkRouteVisualizer lineContactMode "\"rectangular\""
attr enum circular,rectangular
par Baseline.visualizer.networkRouteVisualizer labelFormat "\"%n\""
par Baseline.visualizer.networkRouteVisualizer labelFont "\"<default>, 8px\""
par Baseline.visualizer.networkRouteVisualizer labelColor "\"\""
par Baseline.visualizer.networkRouteVisualizer fadeOutMode "\"realTime\""
attr enum realTime,animationTime,simulationTime
par Baseline.visualizer.networkRouteVisualizer fadeOutTime 1s
attr unit s
par Baseline.visualizer.networkRouteVisualizer fadeOutAnimationSpeed 0
par Baseline.visualizer.networkRouteVisualizer zIndex 3
par Baseline.visualizer.routingTableVisualizer typename "\"inet.visualizer.canvas.networklayer.RoutingTableCanvasVisualizer\""
par Baseline.visualizer.routingTableVisualizer visualizationTargetModule "\"^.^\""
par Baseline.visualizer.routingTableVisualizer visualizationSubjectModule "\"^.^\""
par Baseline.visualizer.routingTableVisualizer tags "\"\""
par Baseline.visualizer.routingTableVisualizer displayRoutingTables false
par Baseline.visualizer.routingTableVisualizer displayRoutesIndividually true
par Baseline.visualizer.routingTableVisualizer displayLabels true
par Baseline.visualizer.routingTableVisualizer destinationFilter "\"*\""
attr mutable ""
par Baseline.visualizer.routingTableVisualizer nodeFilter "\"*\""
attr mutable ""
par Baseline.visualizer.routingTableVisualizer lineColor "\"black\""
par Baseline.visualizer.routingTableVisualizer lineStyle "\"solid\""
par Baseline.visualizer.routingTableVisualizer lineWidth 2
par Baseline.visualizer.routingTableVisualizer lineShift 16
par Baseline.visualizer.routingTableVisualizer lineShiftMode "\"normal\""
par Baseline.visualizer.routingTableVisualizer lineContactSpacing 3
par Baseline.visualizer.routingTableVisualizer lineContactMode "\"rectangular\""
attr enum circular,rectangular
par Baseline.visualizer.routingTableVisualizer labelFormat "\"%d/%m -> %g (%n)\""
attr mutable ""
par Baseline.visualizer.routingTableVisualizer labelFont "\"<default>, 8px\""
par Baseline.visualizer.routingTableVisualizer labelColor "\"black\""
par Baseline.visualizer.routingTableVisualizer zIndex 0
par Baseline.visualizer.transportRouteVisualizer typename "\"inet.visualizer.canvas.transportlayer.TransportRouteCanvasVisualizer\""
par Baseline.visualizer.transportRouteVisualizer visualizationTargetModule "\"^.^\""
par Baseline.visualizer.transportRouteVisualizer visualizationSubjectModule "\"^.^\""
par Baseline.visualizer.transportRouteVisualizer tags "\"\""
par Baseline.visualizer.transportRouteVisualizer displayRoutes false
par Baseline.visualizer.transportRouteVisualizer startPathSignal "\"packetReceivedFromUpper\""
par Baseline.visualizer.transportRouteVisualizer extendPathSignal "\"packetReceivedFromLower\""
par Baseline.visualizer.transportRouteVisualizer endPathSignal "\"packetSentToUpper\""
par Baseline.visualizer.transportRouteVisualizer nodeFilter "\"*\""
attr mutable ""
par Baseline.visualizer.transportRouteVisualizer packetFilter "(omnetpp::cValueHolder)holder: \"*\""
attr mutable ""
par Baseline.visualizer.transportRouteVisualizer lineColor "\"dark\""
attr enum light,dark
par Baseline.visualizer.transportRouteVisualizer lineStyle "\"solid\""
par Baseline.visualizer.transportRouteVisualizer lineWidth 3
par Baseline.visualizer.transportRouteVisualizer lineSmooth false
par Baseline.visualizer.transportRouteVisualizer lineShift 16
par Baseline.visualizer.transportRouteVisualizer lineShiftMode "\"normal\""
par Baseline.visualizer.transportRouteVisualizer lineContactSpacing 3
par Baseline.visualizer.transportRouteVisualizer lineContactMode "\"rectangular\""
attr enum circular,rectangular
par Baseline.visualizer.transportRouteVisualizer labelFormat "\"%n\""
par Baseline.visualizer.transportRouteVisualizer labelFont "\"<default>, 8px\""
par Baseline.visualizer.transportRouteVisualizer labelColor "\"\""
par Baseline.visualizer.transportRouteVisualizer fadeOutMode "\"realTime\""
attr enum realTime,animationTime,simulationTime
par Baseline.visualizer.transportRouteVisualizer fadeOutTime 1s
attr unit s
par Baseline.visualizer.transportRouteVisualizer fadeOutAnimationSpeed 0
par Baseline.visualizer.transportRouteVisualizer zIndex 4
par Baseline.visualizer.transportConnectionVisualizer typename "\"inet.visualizer.canvas.transportlayer.TransportConnectionCanvasVisualizer\""
par Baseline.visualizer.transportConnectionVisualizer visualizationTargetModule "\"^.^\""
par Baseline.visualizer.transportConnectionVisualizer visualizationSubjectModule "\"^.^\""
par Baseline.visualizer.transportConnectionVisualizer tags "\"\""
par Baseline.visualizer.transportConnectionVisualizer networkNodeVisualizerModule "\"^.networkNodeVisualizer\""
par Baseline.visualizer.transportConnectionVisualizer displayTransportConnections false
par Baseline.visualizer.transportConnectionVisualizer sourceNodeFilter "\"*\""
attr mutable ""
par Baseline.visualizer.transportConnectionVisualizer sourcePortFilter "\"*\""
attr mutable ""
par Baseline.visualizer.transportConnectionVisualizer destinationNodeFilter "\"*\""
attr mutable ""
par Baseline.visualizer.transportConnectionVisualizer destinationPortFilter "\"*\""
attr mutable ""
par Baseline.visualizer.transportConnectionVisualizer icon "\"misc/marker_s\""
par Baseline.visualizer.transportConnectionVisualizer iconColor "\"dark\""
attr enum light,dark
par Baseline.visualizer.transportConnectionVisualizer labelFont "\"<default>\""
par Baseline.visualizer.transportConnectionVisualizer labelColor "\"black\""
par Baseline.visualizer.transportConnectionVisualizer placementHint "\"top\""
par Baseline.visualizer.transportConnectionVisualizer placementPriority 0
par Baseline.visualizer.transportConnectionVisualizer zIndex 4
par Baseline.visualizer.failureProtectionConfigurationVisualizer typename "\"inet.visualizer.canvas.configurator.FailureProtectionConfigurationCanvasVisualizer\""
par Baseline.visualizer.failureProtectionConfigurationVisualizer visualizationTargetModule "\"^.^\""
par Baseline.visualizer.failureProtectionConfigurationVisualizer visualizationSubjectModule "\"^.^\""
par Baseline.visualizer.failureProtectionConfigurationVisualizer tags "\"\""
par Baseline.visualizer.failureProtectionConfigurationVisualizer displayTrees false
par Baseline.visualizer.failureProtectionConfigurationVisualizer lineColor "\"dark\""
attr enum light,dark
par Baseline.visualizer.failureProtectionConfigurationVisualizer lineStyle "\"solid\""
par Baseline.visualizer.failureProtectionConfigurationVisualizer lineWidth 3
par Baseline.visualizer.failureProtectionConfigurationVisualizer lineSmooth false
par Baseline.visualizer.failureProtectionConfigurationVisualizer lineShift 16
par Baseline.visualizer.failureProtectionConfigurationVisualizer lineShiftMode "\"normal\""
par Baseline.visualizer.failureProtectionConfigurationVisualizer lineContactSpacing 3
par Baseline.visualizer.failureProtectionConfigurationVisualizer lineContactMode "\"rectangular\""
attr enum circular,rectangular
par Baseline.visualizer.failureProtectionConfigurationVisualizer failureProtectionConfiguratorModule "\"failureProtectionConfigurator\""
par Baseline.visualizer.failureProtectionConfigurationVisualizer streamFilter "\"*\""
par Baseline.visualizer.failureProtectionConfigurationVisualizer zIndex 3
par Baseline.visualizer.streamRedundancyConfigurationVisualizer typename "\"inet.visualizer.canvas.configurator.StreamRedundancyConfigurationCanvasVisualizer\""
par Baseline.visualizer.streamRedundancyConfigurationVisualizer visualizationTargetModule "\"^.^\""
par Baseline.visualizer.streamRedundancyConfigurationVisualizer visualizationSubjectModule "\"^.^\""
par Baseline.visualizer.streamRedundancyConfigurationVisualizer tags "\"\""
par Baseline.visualizer.streamRedundancyConfigurationVisualizer displayTrees false
par Baseline.visualizer.streamRedundancyConfigurationVisualizer lineColor "\"dark\""
attr enum light,dark
par Baseline.visualizer.streamRedundancyConfigurationVisualizer lineStyle "\"solid\""
par Baseline.visualizer.streamRedundancyConfigurationVisualizer lineWidth 3
par Baseline.visualizer.streamRedundancyConfigurationVisualizer lineSmooth false
par Baseline.visualizer.streamRedundancyConfigurationVisualizer lineShift 16
par Baseline.visualizer.streamRedundancyConfigurationVisualizer lineShiftMode "\"normal\""
par Baseline.visualizer.streamRedundancyConfigurationVisualizer lineContactSpacing 3
par Baseline.visualizer.streamRedundancyConfigurationVisualizer lineContactMode "\"rectangular\""
attr enum circular,rectangular
par Baseline.visualizer.streamRedundancyConfigurationVisualizer streamRedundancyConfiguratorModule "\"streamRedundancyConfigurator\""
par Baseline.visualizer.streamRedundancyConfigurationVisualizer streamFilter "\"*\""
par Baseline.visualizer.streamRedundancyConfigurationVisualizer zIndex 3
par Baseline.visualizer typename "\"inet.visualizer.canvas.integrated.IntegratedCanvasVisualizer\""
par Baseline.configurator typename "\"inet.networklayer.configurator.ipv4.Ipv4NetworkConfigurator\""
par Baseline.configurator minLinkWeight 0.001
par Baseline.configurator configureIsolatedNetworksSeparatly false
par Baseline.configurator config "<config>...</config> at content:1"
par Baseline.configurator assignAddresses true
par Baseline.configurator assignUniqueAddresses true
par Baseline.configurator assignDisjunctSubnetAddresses true
par Baseline.configurator addStaticRoutes true
par Baseline.configurator addDefaultRoutes true
par Baseline.configurator addSubnetRoutes true
par Baseline.configurator addDirectRoutes true
par Baseline.configurator optimizeRoutes true
par Baseline.configurator dumpTopology false
par Baseline.configurator dumpLinks false
par Baseline.configurator dumpAddresses false
par Baseline.configurator dumpRoutes false
par Baseline.configurator dumpConfig "\"\""
par Baseline.macForwardingTableConfigurator typename "\"inet.linklayer.configurator.MacForwardingTableConfigurator\""
par Baseline.scenarioManager typename "\"inet.common.scenario.ScenarioManager\""
par Baseline.scenarioManager script "<scenario>...</scenario> at /simulations/6GDetCom_Simulator/simulations/baseline//scenario.xml:1"
par Baseline.histogramContainer typename "\"d6g.distribution.histogram.HistogramContainer\""
par Baseline.histogramContainer histograms "{Downlink: \"../../../deterministic6g_data/PD-Wireless-5G-1/s10-DL_wall.xml\", Uplink: \"../../../deterministic6g_data/PD-Wireless-5G-1/s1-UL_wall.xml\"}"
par Baseline.device1.ethg$i[0].channel typename "\"ned.IdealChannel\""
par Baseline.device1.eth[0].phys$o.channel typename "\"ned.IdealChannel\""
par Baseline.device1.interfaceTable typename "\"inet.networklayer.common.InterfaceTable\""
par Baseline.device1.interfaceTable displayAddresses false
par Baseline.device1.cb typename "\"inet.common.MessageDispatcher\""
par Baseline.device1.cb displayStringTextFormat "\"processed %p pk (%l)\""
par Baseline.device1.cb forwardServiceRegistration true
par Baseline.device1.cb forwardProtocolRegistration true
par Baseline.device1.bridging.directionReverser.upperLayerIn.channel typename "\"ned.IdealChannel\""
par Baseline.device1.bridging.directionReverser.join.out.channel typename "\"ned.IdealChannel\""
par Baseline.device1.bridging.directionReverser.lowerLayerIn.channel typename "\"ned.IdealChannel\""
par Baseline.device1.bridging.directionReverser.fork.out[0].channel typename "\"ned.IdealChannel\""
par Baseline.device1.bridging.directionReverser.fork typename "\"inet.common.MessageDispatcher\""
par Baseline.device1.bridging.directionReverser.fork displayStringTextFormat "\"processed %p pk (%l)\""
par Baseline.device1.bridging.directionReverser.fork forwardServiceRegistration false
par Baseline.device1.bridging.directionReverser.fork forwardProtocolRegistration true
par Baseline.device1.bridging.directionReverser.reverser typename "\"inet.linklayer.ethernet.common.PacketDirectionReverser\""
par Baseline.device1.bridging.directionReverser.reverser displayStringTextFormat "\"processed %p pk (%l)\""
par Baseline.device1.bridging.directionReverser.reverser forwardVlan true
par Baseline.device1.bridging.directionReverser.reverser forwardPcp true
par Baseline.device1.bridging.directionReverser.reverser excludeEncapsulationProtocols []
scalar Baseline.device1.bridging.directionReverser.reverser outgoingPackets:count 0
attr recordingmode count
attr source "merge(packetPushedOut, packetPulledOut)"
attr title "outgoing packets, count"
attr unit pk
scalar Baseline.device1.bridging.directionReverser.reverser outgoingPacketLengths:sum 0
attr interpolationmode none
attr recordingmode sum
attr source "packetLength(merge(packetPushedOut, packetPulledOut))"
attr title "outgoing packet lengths, sum"
attr unit b
statistic Baseline.device1.bridging.directionReverser.reverser outgoingPacketLengths:histogram
field count 0
field mean nan
field stddev nan
field min nan
field max nan
field sum 0
field sqrsum 0
attr interpolationmode none
attr recordingmode histogram
attr source "packetLength(merge(packetPushedOut, packetPulledOut))"
attr title "outgoing packet lengths"
attr unit b
bin	-inf	0
bin	0	0
bin	1	0
scalar Baseline.device1.bridging.directionReverser.reverser flowOutgoingPacketLengths:sum 0
attr interpolationmode none
attr recordingmode sum
attr source "packetLength(demuxFlow(merge(packetPushedOut, packetPulledOut)))"
attr title "flow specific outgoing packet lengths, sum"
attr unit b
statistic Baseline.device1.bridging.directionReverser.reverser flowOutgoingPacketLengths:histogram
field count 0
field mean nan
field stddev nan
field min nan
field max nan
field sum 0
field sqrsum 0
attr interpolationmode none
attr recordingmode histogram
attr source "packetLength(demuxFlow(merge(packetPushedOut, packetPulledOut)))"
attr title "flow specific outgoing packet lengths"
attr unit b
bin	-inf	0
bin	0	0
bin	1	0
scalar Baseline.device1.bridging.directionReverser.reverser incomingPackets:count 0
attr recordingmode count
attr source "merge(packetPushedIn, packetPulledIn)"
attr title "incoming packets, count"
attr unit pk
scalar Baseline.device1.bridging.directionReverser.reverser incomingPacketLengths:sum 0
attr interpolationmode none
attr recordingmode sum
attr source "packetLength(merge(packetPushedIn, packetPulledIn))"
attr title "incoming packet lengths, sum"
attr unit b
statistic Baseline.device1.bridging.directionReverser.reverser incomingPacketLengths:histogram
field count 0
field mean nan
field stddev nan
field min nan
field max nan
field sum 0
field sqrsum 0
attr interpolationmode none
attr recordingmode histogram
attr source "packetLength(merge(packetPushedIn, packetPulledIn))"
attr title "incoming packet lengths"
attr unit b
bin	-inf	0
bin	0	0
bin	1	0
scalar Baseline.device1.bridging.directionReverser.reverser flowIncomingPacketLengths:sum 0
attr interpolationmode none
attr recordingmode sum
attr source "packetLength(demuxFlow(merge(packetPushedIn, packetPulledIn)))"
attr title "flow specific incoming packet lengths, sum"
attr unit b
statistic Baseline.device1.bridging.directionReverser.reverser flowIncomingPacketLengths:histogram
field count 0
field mean nan
field stddev nan
field min nan
field max nan
field sum 0
field sqrsum 0
attr interpolationmode none
attr recordingmode histogram
attr source "packetLength(demuxFlow(merge(packetPushedIn, packetPulledIn)))"
attr title "flow specific incoming packet lengths"
attr unit b
bin	-inf	0
bin	0	0
bin	1	0
par Baseline.device1.bridging.directionReverser.join typename "\"inet.queueing.common.PacketMultiplexer\""
par Baseline.device1.bridging.directionReverser.join displayStringTextFormat "\"passed %p pk (%l)\""
par Baseline.device1.bridging.directionReverser.join forwardServiceRegistration true
par Baseline.device1.bridging.directionReverser.join forwardProtocolRegistration false
scalar Baseline.device1.bridging.directionReverser.join packets:count 0
attr recordingmode count
attr source "merge(packetPushed, packetPulled)"
attr title "packets, count"
attr unit pk
scalar Baseline.device1.bridging.directionReverser.join packetLengths:sum 0
attr interpolationmode none
attr recordingmode sum
attr source "packetLength(merge(packetPushed, packetPulled))"
attr title "packet lengths, sum"
attr unit b
statistic Baseline.device1.bridging.directionReverser.join packetLengths:histogram
field count 0
field mean nan
field stddev nan
field min nan
field max nan
field sum 0
field sqrsum 0
attr interpolationmode none
attr recordingmode histogram
attr source "packetLength(merge(packetPushed, packetPulled))"
attr title "packet lengths"
attr unit b
bin	-inf	0
bin	0	0
bin	1	0
par Baseline.device1.bridging.directionReverser typename "\"inet.linklayer.ethernet.common.DirectionReverserLayer\""
par Baseline.device1.bridging.streamIdentifier.upperLayerIn.channel typename "\"ned.IdealChannel\""
par Baseline.device1.bridging.streamIdentifier.identifier.out.channel typename "\"ned.IdealChannel\""
par Baseline.device1.bridging.streamIdentifier.identifier typename "\"inet.protocolelement.redundancy.StreamIdentifier\""
par Baseline.device1.bridging.streamIdentifier.identifier displayStringTextFormat "\"processed %p pk (%l)\""
par Baseline.device1.bridging.streamIdentifier.identifier hasSequenceNumbering false
par Baseline.device1.bridging.streamIdentifier.identifier mapping []
attr mutable ""
scalar Baseline.device1.bridging.streamIdentifier.identifier outgoingPackets:count 200
attr recordingmode count
attr source "merge(packetPushedOut, packetPulledOut)"
attr title "outgoing packets, count"
attr unit pk
scalar Baseline.device1.bridging.streamIdentifier.identifier outgoingPacketLengths:sum 1558400
attr interpolationmode none
attr recordingmode sum
attr source "packetLength(merge(packetPushedOut, packetPulledOut))"
attr title "outgoing packet lengths, sum"
attr unit b
statistic Baseline.device1.bridging.streamIdentifier.identifier outgoingPacketLengths:histogram
field count 200
field mean 7792
field stddev 0
field min 7792
field max 7792
field sum 1558400
field sqrsum 12143052800
attr interpolationmode none
attr recordingmode histogram
attr source "packetLength(merge(packetPushedOut, packetPulledOut))"
attr title "outgoing packet lengths"
attr unit b
bin	-inf	0
bin	7791	0
bin	7792	200
bin	7793	0
scalar Baseline.device1.bridging.streamIdentifier.identifier flowOutgoingPacketLengths:sum 0
attr interpolationmode none
attr recordingmode sum
attr source "packetLength(demuxFlow(merge(packetPushedOut, packetPulledOut)))"
attr title "flow specific outgoing packet lengths, sum"
attr unit b
statistic Baseline.device1.bridging.streamIdentifier.identifier flowOutgoingPacketLengths:histogram
field count 0
field mean nan
field stddev nan
field min nan
field max nan
field sum 0
field sqrsum 0
attr interpolationmode none
attr recordingmode histogram
attr source "packetLength(demuxFlow(merge(packetPushedOut, packetPulledOut)))"
attr title "flow specific outgoing packet lengths"
attr unit b
bin	-inf	0
bin	0	0
bin	1	0
scalar Baseline.device1.bridging.streamIdentifier.identifier incomingPackets:count 200
attr recordingmode count
attr source "merge(packetPushedIn, packetPulledIn)"
attr title "incoming packets, count"
attr unit pk
scalar Baseline.device1.bridging.streamIdentifier.identifier incomingPacketLengths:sum 1558400
attr interpolationmode none
attr recordingmode sum
attr source "packetLength(merge(packetPushedIn, packetPulledIn))"
attr title "incoming packet lengths, sum"
attr unit b
statistic Baseline.device1.bridging.streamIdentifier.identifier incomingPacketLengths:histogram
field count 200
field mean 7792
field stddev 0
field min 7792
field max 7792
field sum 1558400
field sqrsum 12143052800
attr interpolationmode none
attr recordingmode histogram
attr source "packetLength(merge(packetPushedIn, packetPulledIn))"
attr title "incoming packet lengths"
attr unit b
bin	-inf	0
bin	7791	0
bin	7792	200
bin	7793	0
scalar Baseline.device1.bridging.streamIdentifier.identifier flowIncomingPacketLengths:sum 0
attr interpolationmode none
attr recordingmode sum
attr source "packetLength(demuxFlow(merge(packetPushedIn, packetPulledIn)))"
attr title "flow specific incoming packet lengths, sum"
attr unit b
statistic Baseline.device1.bridging.streamIdentifier.identifier flowIncomingPacketLengths:histogram
field count 0
field mean nan
field stddev nan
field min nan
field max nan
field sum 0
field sqrsum 0
attr interpolationmode none
attr recordingmode histogram
attr source "packetLength(demuxFlow(merge(packetPushedIn, packetPulledIn)))"
attr title "flow specific incoming packet lengths"
attr unit b
bin	-inf	0
bin	0	0
bin	1	0
par Baseline.device1.bridging.streamIdentifier typename "\"inet.protocolelement.redundancy.StreamIdentifierLayer\""
par Baseline.device1.bridging.streamCoder.upperLayerIn.channel typename "\"ned.IdealChannel\""
par Baseline.device1.bridging.streamCoder.encoder.out.channel typename "\"ned.IdealChannel\""
par Baseline.device1.bridging.streamCoder.lowerLayerIn.channel typename "\"ned.IdealChannel\""
par Baseline.device1.bridging.streamCoder.decoder.out.channel typename "\"ned.IdealChannel\""
par Baseline.device1.bridging.streamCoder.decoder typename "\"inet.protocolelement.redundancy.StreamDecoder\""
par Baseline.device1.bridging.streamCoder.decoder displayStringTextFormat "\"processed %p pk (%l)\""
par Baseline.device1.bridging.streamCoder.decoder interfaceTableModule "\"Baseline.device1.interfaceTable\""
par Baseline.device1.bridging.streamCoder.decoder mapping []
attr mutable ""
scalar Baseline.device1.bridging.streamCoder.decoder outgoingPackets:count 0
attr recordingmode count
attr source "merge(packetPushedOut, packetPulledOut)"
attr title "outgoing packets, count"
attr unit pk
scalar Baseline.device1.bridging.streamCoder.decoder outgoingPacketLengths:sum 0
attr interpolationmode none
attr recordingmode sum
attr source "packetLength(merge(packetPushedOut, packetPulledOut))"
attr title "outgoing packet lengths, sum"
attr unit b
statistic Baseline.device1.bridging.streamCoder.decoder outgoingPacketLengths:histogram
field count 0
field mean nan
field stddev nan
field min nan
field max nan
field sum 0
field sqrsum 0
attr interpolationmode none
attr recordingmode histogram
attr source "packetLength(merge(packetPushedOut, packetPulledOut))"
attr title "outgoing packet lengths"
attr unit b
bin	-inf	0
bin	0	0
bin	1	0
scalar Baseline.device1.bridging.streamCoder.decoder flowOutgoingPacketLengths:sum 0
attr interpolationmode none
attr recordingmode sum
attr source "packetLength(demuxFlow(merge(packetPushedOut, packetPulledOut)))"
attr title "flow specific outgoing packet lengths, sum"
attr unit b
statistic Baseline.device1.bridging.streamCoder.decoder flowOutgoingPacketLengths:histogram
field count 0
field mean nan
field stddev nan
field min nan
field max nan
field sum 0
field sqrsum 0
attr interpolationmode none
attr recordingmode histogram
attr source "packetLength(demuxFlow(merge(packetPushedOut, packetPulledOut)))"
attr title "flow specific outgoing packet lengths"
attr unit b
bin	-inf	0
bin	0	0
bin	1	0
scalar Baseline.device1.bridging.streamCoder.decoder incomingPackets:count 0
attr recordingmode count
attr source "merge(packetPushedIn, packetPulledIn)"
attr title "incoming packets, count"
attr unit pk
scalar Baseline.device1.bridging.streamCoder.decoder incomingPacketLengths:sum 0
attr interpolationmode none
attr recordingmode sum
attr source "packetLength(merge(packetPushedIn, packetPulledIn))"
attr title "incoming packet lengths, sum"
attr unit b
statistic Baseline.device1.bridging.streamCoder.decoder incomingPacketLengths:histogram
field count 0
field mean nan
field stddev nan
field min nan
field max nan
field sum 0
field sqrsum 0
attr interpolationmode none
attr recordingmode histogram
attr source "packetLength(merge(packetPushedIn, packetPulledIn))"
attr title "incoming packet lengths"
attr unit b
bin	-inf	0
bin	0	0
bin	1	0
scalar Baseline.device1.bridging.streamCoder.decoder flowIncomingPacketLengths:sum 0
attr interpolationmode none
attr recordingmode sum
attr source "packetLength(demuxFlow(merge(packetPushedIn, packetPulledIn)))"
attr title "flow specific incoming packet lengths, sum"
attr unit b
statistic Baseline.device1.bridging.streamCoder.decoder flowIncomingPacketLengths:histogram
field count 0
field mean nan
field stddev nan
field min nan
field max nan
field sum 0
field sqrsum 0
attr interpolationmode none
attr recordingmode histogram
attr source "packetLength(demuxFlow(merge(packetPushedIn, packetPulledIn)))"
attr title "flow specific incoming packet lengths"
attr unit b
bin	-inf	0
bin	0	0
bin	1	0
par Baseline.device1.bridging.streamCoder.encoder typename "\"inet.protocolelement.redundancy.StreamEncoder\""
par Baseline.device1.bridging.streamCoder.encoder displayStringTextFormat "\"processed %p pk (%l)\""
par Baseline.device1.bridging.streamCoder.encoder mapping []
attr mutable ""
scalar Baseline.device1.bridging.streamCoder.encoder outgoingPackets:count 200
attr recordingmode count
attr source "merge(packetPushedOut, packetPulledOut)"
attr title "outgoing packets, count"
attr unit pk
scalar Baseline.device1.bridging.streamCoder.encoder outgoingPacketLengths:sum 1558400
attr interpolationmode none
attr recordingmode sum
attr source "packetLength(merge(packetPushedOut, packetPulledOut))"
attr title "outgoing packet lengths, sum"
attr unit b
statistic Baseline.device1.bridging.streamCoder.encoder outgoingPacketLengths:histogram
field count 200
field mean 7792
field stddev 0
field min 7792
field max 7792
field sum 1558400
field sqrsum 12143052800
attr interpolationmode none
attr recordingmode histogram
attr source "packetLength(merge(packetPushedOut, packetPulledOut))"
attr title "outgoing packet lengths"
attr unit b
bin	-inf	0
bin	7791	0
bin	7792	200
bin	7793	0
scalar Baseline.device1.bridging.streamCoder.encoder flowOutgoingPacketLengths:sum 0
attr interpolationmode none
attr recordingmode sum
attr source "packetLength(demuxFlow(merge(packetPushedOut, packetPulledOut)))"
attr title "flow specific outgoing packet lengths, sum"
attr unit b
statistic Baseline.device1.bridging.streamCoder.encoder flowOutgoingPacketLengths:histogram
field count 0
field mean nan
field stddev nan
field min nan
field max nan
field sum 0
field sqrsum 0
attr interpolationmode none
attr recordingmode histogram
attr source "packetLength(demuxFlow(merge(packetPushedOut, packetPulledOut)))"
attr title "flow specific outgoing packet lengths"
attr unit b
bin	-inf	0
bin	0	0
bin	1	0
scalar Baseline.device1.bridging.streamCoder.encoder incomingPackets:count 200
attr recordingmode count
attr source "merge(packetPushedIn, packetPulledIn)"
attr title "incoming packets, count"
attr unit pk
scalar Baseline.device1.bridging.streamCoder.encoder incomingPacketLengths:sum 1558400
attr interpolationmode none
attr recordingmode sum
attr source "packetLength(merge(packetPushedIn, packetPulledIn))"
attr title "incoming packet lengths, sum"
attr unit b
statistic Baseline.device1.bridging.streamCoder.encoder incomingPacketLengths:histogram
field count 200
field mean 7792
field stddev 0
field min 7792
field max 7792
field sum 1558400
field sqrsum 12143052800
attr interpolationmode none
attr recordingmode histogram
attr source "packetLength(merge(packetPushedIn, packetPulledIn))"
attr title "incoming packet lengths"
attr unit b
bin	-inf	0
bin	7791	0
bin	7792	200
bin	7793	0
scalar Baseline.device1.bridging.streamCoder.encoder flowIncomingPacketLengths:sum 0
attr interpolationmode none
attr recordingmode sum
attr source "packetLength(demuxFlow(merge(packetPushedIn, packetPulledIn)))"
attr title "flow specific incoming packet lengths, sum"
attr unit b
statistic Baseline.device1.bridging.streamCoder.encoder flowIncomingPacketLengths:histogram
field count 0
field mean nan
field stddev nan
field min nan
field max nan
field sum 0
field sqrsum 0
attr interpolationmode none
attr recordingmode histogram
attr source "packetLength(demuxFlow(merge(packetPushedIn, packetPulledIn)))"
attr title "flow specific incoming packet lengths"
attr unit b
bin	-inf	0
bin	0	0
bin	1	0
par Baseline.device1.bridging.streamCoder typename "\"inet.protocolelement.redundancy.StreamCoderLayer\""
par Baseline.device1.bridging.streamCoder interfaceTableModule "\"Baseline.device1.interfaceTable\""
par Baseline.device1.bridging typename "\"inet.linklayer.ethernet.common.BridgingLayer\""
par Baseline.device1.bridging macTableModule "\"\""
par Baseline.device1.bridging interfaceTableModule "\"Baseline.device1.interfaceTable\""
par Baseline.device1.bl typename "\"inet.common.MessageDispatcher\""
par Baseline.device1.bl displayStringTextFormat "\"processed %p pk (%l)\""
par Baseline.device1.bl forwardServiceRegistration true
par Baseline.device1.bl forwardProtocolRegistration true
par Baseline.device1.ethernet.fcsInserter.out.channel typename "\"ned.IdealChannel\""
par Baseline.device1.ethernet.lowerLayerIn.channel typename "\"ned.IdealChannel\""
par Baseline.device1.ethernet.upperLayerIn.channel typename "\"ned.IdealChannel\""
par Baseline.device1.ethernet.macHeaderChecker.out.channel typename "\"ned.IdealChannel\""
par Baseline.device1.ethernet.macHeaderInserter typename "\"inet.linklayer.ethernet.modular.EthernetMacHeaderInserter\""
par Baseline.device1.ethernet.macHeaderInserter displayStringTextFormat "\"processed %p pk (%l)\""
par Baseline.device1.ethernet.macHeaderInserter interfaceTableModule "\"Baseline.device1.interfaceTable\""
scalar Baseline.device1.ethernet.macHeaderInserter outgoingPackets:count 200
attr recordingmode count
attr source "merge(packetPushedOut, packetPulledOut)"
attr title "outgoing packets, count"
attr unit pk
scalar Baseline.device1.ethernet.macHeaderInserter outgoingPacketLengths:sum 1580800
attr interpolationmode none
attr recordingmode sum
attr source "packetLength(merge(packetPushedOut, packetPulledOut))"
attr title "outgoing packet lengths, sum"
attr unit b
statistic Baseline.device1.ethernet.macHeaderInserter outgoingPacketLengths:histogram
field count 200
field mean 7904
field stddev 0
field min 7904
field max 7904
field sum 1580800
field sqrsum 12494643200
attr interpolationmode none
attr recordingmode histogram
attr source "packetLength(merge(packetPushedOut, packetPulledOut))"
attr title "outgoing packet lengths"
attr unit b
bin	-inf	0
bin	7903	0
bin	7904	200
bin	7905	0
scalar Baseline.device1.ethernet.macHeaderInserter flowOutgoingPacketLengths:sum 0
attr interpolationmode none
attr recordingmode sum
attr source "packetLength(demuxFlow(merge(packetPushedOut, packetPulledOut)))"
attr title "flow specific outgoing packet lengths, sum"
attr unit b
statistic Baseline.device1.ethernet.macHeaderInserter flowOutgoingPacketLengths:histogram
field count 0
field mean nan
field stddev nan
field min nan
field max nan
field sum 0
field sqrsum 0
attr interpolationmode none
attr recordingmode histogram
attr source "packetLength(demuxFlow(merge(packetPushedOut, packetPulledOut)))"
attr title "flow specific outgoing packet lengths"
attr unit b
bin	-inf	0
bin	0	0
bin	1	0
scalar Baseline.device1.ethernet.macHeaderInserter incomingPackets:count 200
attr recordingmode count
attr source "merge(packetPushedIn, packetPulledIn)"
attr title "incoming packets, count"
attr unit pk
scalar Baseline.device1.ethernet.macHeaderInserter incomingPacketLengths:sum 1558400
attr interpolationmode none
attr recordingmode sum
attr source "packetLength(merge(packetPushedIn, packetPulledIn))"
attr title "incoming packet lengths, sum"
attr unit b
statistic Baseline.device1.ethernet.macHeaderInserter incomingPacketLengths:histogram
field count 200
field mean 7792
field stddev 0
field min 7792
field max 7792
field sum 1558400
field sqrsum 12143052800
attr interpolationmode none
attr recordingmode histogram
attr source "packetLength(merge(packetPushedIn, packetPulledIn))"
attr title "incoming packet lengths"
attr unit b
bin	-inf	0
bin	7791	0
bin	7792	200
bin	7793	0
scalar Baseline.device1.ethernet.macHeaderInserter flowIncomingPacketLengths:sum 0
attr interpolationmode none
attr recordingmode sum
attr source "packetLength(demuxFlow(merge(packetPushedIn, packetPulledIn)))"
attr title "flow specific incoming packet lengths, sum"
attr unit b
statistic Baseline.device1.ethernet.macHeaderInserter flowIncomingPacketLengths:histogram
field count 0
field mean nan
field stddev nan
field min nan
field max nan
field sum 0
field sqrsum 0
attr interpolationmode none
attr recordingmode histogram
attr source "packetLength(demuxFlow(merge(packetPushedIn, packetPulledIn)))"
attr title "flow specific incoming packet lengths"
attr unit b
bin	-inf	0
bin	0	0
bin	1	0
par Baseline.device1.ethernet.paddingInserter typename "\"inet.protocolelement.common.PaddingInserter\""
par Baseline.device1.ethernet.paddingInserter displayStringTextFormat "\"processed %p pk (%l)\""
par Baseline.device1.ethernet.paddingInserter minLength 480b
attr unit b
par Baseline.device1.ethernet.paddingInserter roundingLength 8b
attr unit b
par Baseline.device1.ethernet.paddingInserter insertionPosition "\"back\""
attr enum front,back
scalar Baseline.device1.ethernet.paddingInserter outgoingPackets:count 200
attr recordingmode count
attr source "merge(packetPushedOut, packetPulledOut)"
attr title "outgoing packets, count"
attr unit pk
scalar Baseline.device1.ethernet.paddingInserter outgoingPacketLengths:sum 1580800
attr interpolationmode none
attr recordingmode sum
attr source "packetLength(merge(packetPushedOut, packetPulledOut))"
attr title "outgoing packet lengths, sum"
attr unit b
statistic Baseline.device1.ethernet.paddingInserter outgoingPacketLengths:histogram
field count 200
field mean 7904
field stddev 0
field min 7904
field max 7904
field sum 1580800
field sqrsum 12494643200
attr interpolationmode none
attr recordingmode histogram
attr source "packetLength(merge(packetPushedOut, packetPulledOut))"
attr title "outgoing packet lengths"
attr unit b
bin	-inf	0
bin	7903	0
bin	7904	200
bin	7905	0
scalar Baseline.device1.ethernet.paddingInserter flowOutgoingPacketLengths:sum 0
attr interpolationmode none
attr recordingmode sum
attr source "packetLength(demuxFlow(merge(packetPushedOut, packetPulledOut)))"
attr title "flow specific outgoing packet lengths, sum"
attr unit b
statistic Baseline.device1.ethernet.paddingInserter flowOutgoingPacketLengths:histogram
field count 0
field mean nan
field stddev nan
field min nan
field max nan
field sum 0
field sqrsum 0
attr interpolationmode none
attr recordingmode histogram
attr source "packetLength(demuxFlow(merge(packetPushedOut, packetPulledOut)))"
attr title "flow specific outgoing packet lengths"
attr unit b
bin	-inf	0
bin	0	0
bin	1	0
scalar Baseline.device1.ethernet.paddingInserter incomingPackets:count 200
attr recordingmode count
attr source "merge(packetPushedIn, packetPulledIn)"
attr title "incoming packets, count"
attr unit pk
scalar Baseline.device1.ethernet.paddingInserter incomingPacketLengths:sum 1580800
attr interpolationmode none
attr recordingmode sum
attr source "packetLength(merge(packetPushedIn, packetPulledIn))"
attr title "incoming packet lengths, sum"
attr unit b
statistic Baseline.device1.ethernet.paddingInserter incomingPacketLengths:histogram
field count 200
field mean 7904
field stddev 0
field min 7904
field max 7904
field sum 1580800
field sqrsum 12494643200
attr interpolationmode none
attr recordingmode histogram
attr source "packetLength(merge(packetPushedIn, packetPulledIn))"
attr title "incoming packet lengths"
attr unit b
bin	-inf	0
bin	7903	0
bin	7904	200
bin	7905	0
scalar Baseline.device1.ethernet.paddingInserter flowIncomingPacketLengths:sum 0
attr interpolationmode none
attr recordingmode sum
attr source "packetLength(demuxFlow(merge(packetPushedIn, packetPulledIn)))"
attr title "flow specific incoming packet lengths, sum"
attr unit b
statistic Baseline.device1.ethernet.paddingInserter flowIncomingPacketLengths:histogram
field count 0
field mean nan
field stddev nan
field min nan
field max nan
field sum 0
field sqrsum 0
attr interpolationmode none
attr recordingmode histogram
attr source "packetLength(demuxFlow(merge(packetPushedIn, packetPulledIn)))"
attr title "flow specific incoming packet lengths"
attr unit b
bin	-inf	0
bin	0	0
bin	1	0
par Baseline.device1.ethernet.fcsInserter typename "\"inet.linklayer.ethernet.modular.EthernetFcsInserter\""
par Baseline.device1.ethernet.fcsInserter displayStringTextFormat "\"processed %p pk (%l)\""
par Baseline.device1.ethernet.fcsInserter fcsMode "\"declared\""
attr enum disabled,declared,computed
scalar Baseline.device1.ethernet.fcsInserter outgoingPackets:count 200
attr recordingmode count
attr source "merge(packetPushedOut, packetPulledOut)"
attr title "outgoing packets, count"
attr unit pk
scalar Baseline.device1.ethernet.fcsInserter outgoingPacketLengths:sum 1587200
attr interpolationmode none
attr recordingmode sum
attr source "packetLength(merge(packetPushedOut, packetPulledOut))"
attr title "outgoing packet lengths, sum"
attr unit b
statistic Baseline.device1.ethernet.fcsInserter outgoingPacketLengths:histogram
field count 200
field mean 7936
field stddev 0
field min 7936
field max 7936
field sum 1587200
field sqrsum 12596019200
attr interpolationmode none
attr recordingmode histogram
attr source "packetLength(merge(packetPushedOut, packetPulledOut))"
attr title "outgoing packet lengths"
attr unit b
bin	-inf	0
bin	7935	0
bin	7936	200
bin	7937	0
scalar Baseline.device1.ethernet.fcsInserter flowOutgoingPacketLengths:sum 0
attr interpolationmode none
attr recordingmode sum
attr source "packetLength(demuxFlow(merge(packetPushedOut, packetPulledOut)))"
attr title "flow specific outgoing packet lengths, sum"
attr unit b
statistic Baseline.device1.ethernet.fcsInserter flowOutgoingPacketLengths:histogram
field count 0
field mean nan
field stddev nan
field min nan
field max nan
field sum 0
field sqrsum 0
attr interpolationmode none
attr recordingmode histogram
attr source "packetLength(demuxFlow(merge(packetPushedOut, packetPulledOut)))"
attr title "flow specific outgoing packet lengths"
attr unit b
bin	-inf	0
bin	0	0
bin	1	0
scalar Baseline.device1.ethernet.fcsInserter incomingPackets:count 200
attr recordingmode count
attr source "merge(packetPushedIn, packetPulledIn)"
attr title "incoming packets, count"
attr unit pk
scalar Baseline.device1.ethernet.fcsInserter incomingPacketLengths:sum 1580800
attr interpolationmode none
attr recordingmode sum
attr source "packetLength(merge(packetPushedIn, packetPulledIn))"
attr title "incoming packet lengths, sum"
attr unit b
statistic Baseline.device1.ethernet.fcsInserter incomingPacketLengths:histogram
field count 200
field mean 7904
field stddev 0
field min 7904
field max 7904
field sum 1580800
field sqrsum 12494643200
attr interpolationmode none
attr recordingmode histogram
attr source "packetLength(merge(packetPushedIn, packetPulledIn))"
attr title "incoming packet lengths"
attr unit b
bin	-inf	0
bin	7903	0
bin	7904	200
bin	7905	0
scalar Baseline.device1.ethernet.fcsInserter flowIncomingPacketLengths:sum 0
attr interpolationmode none
attr recordingmode sum
attr source "packetLength(demuxFlow(merge(packetPushedIn, packetPulledIn)))"
attr title "flow specific incoming packet lengths, sum"
attr unit b
statistic Baseline.device1.ethernet.fcsInserter flowIncomingPacketLengths:histogram
field count 0
field mean nan
field stddev nan
field min nan
field max nan
field sum 0
field sqrsum 0
attr interpolationmode none
[...]
par Baseline.device2.ipv4.icmp crcMode "\"declared\""
attr enum declared,computed
attr mutable ""
par Baseline.device2.ipv4.icmp quoteLength 8B
attr mutable ""
attr unit B
par Baseline.device2.ipv4.mp typename "\"inet.common.MessageDispatcher\""
par Baseline.device2.ipv4.mp displayStringTextFormat "\"processed %p pk (%l)\""
par Baseline.device2.ipv4.mp forwardServiceRegistration true
par Baseline.device2.ipv4.mp forwardProtocolRegistration true
par Baseline.device2.ipv4.ip typename "\"inet.networklayer.ipv4.Ipv4\""
par Baseline.device2.ipv4.ip interfaceTableModule "\"Baseline.device2.interfaceTable\""
par Baseline.device2.ipv4.ip routingTableModule "\"Baseline.device2.ipv4.routingTable\""
par Baseline.device2.ipv4.ip arpModule "\"Baseline.device2.ipv4.arp\""
par Baseline.device2.ipv4.ip icmpModule "\"Baseline.device2.ipv4.icmp\""
par Baseline.device2.ipv4.ip crcMode "\"declared\""
attr enum declared,computed
par Baseline.device2.ipv4.ip timeToLive 32
par Baseline.device2.ipv4.ip multicastTimeToLive 32
par Baseline.device2.ipv4.ip fragmentTimeout 60s
attr unit s
par Baseline.device2.ipv4.ip limitedBroadcast false
par Baseline.device2.ipv4.ip directBroadcastInterfaces "\"\""
scalar Baseline.device2.ipv4.ip packetDropAddressResolutionFailed:count 0
attr interpolationmode none
attr recordingmode count
attr source packetDropReasonIsAddressResolutionFailed(packetDropped)
attr title "packet drop: address resolution failed, count"
scalar Baseline.device2.ipv4.ip packetDropAddressResolutionFailed:sum(packetBytes) 0
attr interpolationmode none
attr recordingmode sum(packetBytes)
attr source packetDropReasonIsAddressResolutionFailed(packetDropped)
attr title "packet drop: address resolution failed, sum(packetBytes)"
scalar Baseline.device2.ipv4.ip packetDropHopLimitReached:count 0
attr interpolationmode none
attr recordingmode count
attr source packetDropReasonIsHopLimitReached(packetDropped)
attr title "packet drop: hop limit reached, count"
scalar Baseline.device2.ipv4.ip packetDropHopLimitReached:sum(packetBytes) 0
attr interpolationmode none
attr recordingmode sum(packetBytes)
attr source packetDropReasonIsHopLimitReached(packetDropped)
attr title "packet drop: hop limit reached, sum(packetBytes)"
scalar Baseline.device2.ipv4.ip packetDropForwardingDisabled:count 0
attr interpolationmode none
attr recordingmode count
attr source packetDropReasonIsForwardingDisabled(packetDropped)
attr title "packet drop: forwarding disabled, count"
scalar Baseline.device2.ipv4.ip packetDropForwardingDisabled:sum(packetBytes) 0
attr interpolationmode none
attr recordingmode sum(packetBytes)
attr source packetDropReasonIsForwardingDisabled(packetDropped)
attr title "packet drop: forwarding disabled, sum(packetBytes)"
scalar Baseline.device2.ipv4.ip packetDropNoInterfaceFound:count 0
attr interpolationmode none
attr recordingmode count
attr source packetDropReasonIsNoInterfaceFound(packetDropped)
attr title "packet drop: no interface found, count"
scalar Baseline.device2.ipv4.ip packetDropNoInterfaceFound:sum(packetBytes) 0
attr interpolationmode none
attr recordingmode sum(packetBytes)
attr source packetDropReasonIsNoInterfaceFound(packetDropped)
attr title "packet drop: no interface found, sum(packetBytes)"
scalar Baseline.device2.ipv4.ip packetDropNoRouteFound:count 0
attr interpolationmode none
attr recordingmode count
attr source packetDropReasonIsNoRouteFound(packetDropped)
attr title "packet drop: no route found, count"
scalar Baseline.device2.ipv4.ip packetDropNoRouteFound:sum(packetBytes) 0
attr interpolationmode none
attr recordingmode sum(packetBytes)
attr source packetDropReasonIsNoRouteFound(packetDropped)
attr title "packet drop: no route found, sum(packetBytes)"
scalar Baseline.device2.ipv4.ip packetDropUndefined:count 0
attr interpolationmode none
attr recordingmode count
attr source packetDropReasonIsUndefined(packetDropped)
attr title "packet drop: undefined, count"
scalar Baseline.device2.ipv4.ip packetDropUndefined:sum(packetBytes) 0
attr interpolationmode none
attr recordingmode sum(packetBytes)
attr source packetDropReasonIsUndefined(packetDropped)
attr title "packet drop: undefined, sum(packetBytes)"
par Baseline.device2.ipv4.arp typename "\"inet.networklayer.arp.ipv4.GlobalArp\""
par Baseline.device2.ipv4.arp interfaceTableModule "\"Baseline.device2.interfaceTable\""
par Baseline.device2.ipv4.arp addressType "\"ipv4\""
attr enum ipv4,ipv6,mac,moduleid,modulepath
par Baseline.device2.ipv4.lp typename "\"inet.common.MessageDispatcher\""
par Baseline.device2.ipv4.lp displayStringTextFormat "\"processed %p pk (%l)\""
par Baseline.device2.ipv4.lp forwardServiceRegistration true
par Baseline.device2.ipv4.lp forwardProtocolRegistration true
par Baseline.device2.ipv4 typename "\"inet.networklayer.ipv4.Ipv4NetworkLayer\""
par Baseline.device2.ipv4 forwarding false
par Baseline.device2.ipv4 multicastForwarding false
par Baseline.device2.ipv4 interfaceTableModule "\"Baseline.device2.interfaceTable\""
par Baseline.device2.ipv4 displayStringTextFormat "\"%i\""
par Baseline.device2.nl typename "\"inet.common.MessageDispatcher\""
par Baseline.device2.nl displayStringTextFormat "\"processed %p pk (%l)\""
par Baseline.device2.nl forwardServiceRegistration true
par Baseline.device2.nl forwardProtocolRegistration true
par Baseline.device2.udp typename "\"inet.transportlayer.udp.Udp\""
par Baseline.device2.udp interfaceTableModule "\"Baseline.device2.interfaceTable\""
par Baseline.device2.udp icmpModule "\"^.ipv4.icmp\""
par Baseline.device2.udp icmpv6Module "\"^.ipv6.icmpv6\""
par Baseline.device2.udp crcMode "\"declared\""
attr enum disabled,declared,computed
par Baseline.device2.udp defaultMulticastLoop true
scalar Baseline.device2.udp packetReceived:count 200
attr interpolationmode none
attr recordingmode count
attr source packetReceived
attr title "packets received, count"
scalar Baseline.device2.udp packetReceived:sum(packetBytes) 190800
attr interpolationmode none
attr recordingmode sum(packetBytes)
attr source packetReceived
attr title "packets received, sum(packetBytes)"
scalar Baseline.device2.udp packetSent:count 0
attr interpolationmode none
attr recordingmode count
attr source packetSent
attr title "packets sent, count"
scalar Baseline.device2.udp packetSent:sum(packetBytes) 0
attr interpolationmode none
attr recordingmode sum(packetBytes)
attr source packetSent
attr title "packets sent, sum(packetBytes)"
scalar Baseline.device2.udp passedUpPk:count 200
attr interpolationmode none
attr recordingmode count
attr source packetSentToUpper
attr title "packets passed up, count"
scalar Baseline.device2.udp droppedPkWrongPort:count 0
attr interpolationmode none
attr recordingmode count
attr source packetDropReasonIsNoPortFound(packetDropped)
attr title "packets dropped (wrong port), count"
scalar Baseline.device2.udp droppedPkBadChecksum:count 0
attr interpolationmode none
attr recordingmode count
attr source packetDropReasonIsIncorrectlyReceived(packetDropped)
attr title "packets dropped (checksum error), count"
par Baseline.device2.tcp typename "\"inet.transportlayer.tcp.Tcp\""
par Baseline.device2.tcp crcMode "\"declared\""
attr enum declared,computed
par Baseline.device2.tcp advertisedWindow 7504
par Baseline.device2.tcp delayedAcksEnabled false
par Baseline.device2.tcp nagleEnabled true
par Baseline.device2.tcp limitedTransmitEnabled false
par Baseline.device2.tcp increasedIWEnabled false
par Baseline.device2.tcp sackSupport false
par Baseline.device2.tcp windowScalingSupport false
par Baseline.device2.tcp windowScalingFactor -1
par Baseline.device2.tcp timestampSupport false
par Baseline.device2.tcp mss 536
par Baseline.device2.tcp msl 120s
attr unit s
par Baseline.device2.tcp tcpAlgorithmClass "\"TcpReno\""
attr enum TcpVegas,TcpWestwood,TcpNewReno,TcpReno,TcpTahoe,TcpNoCongestionControl
par Baseline.device2.tcp useDataNotification false
par Baseline.device2.tcp dupthresh 3
par Baseline.device2.tcp initialSsthresh 4294967295
par Baseline.device2.tcp stopOperationExtraTime 0s
attr unit s
par Baseline.device2.tcp stopOperationTimeout 2s
attr unit s
par Baseline.device2.tcp ecnWillingness false
par Baseline.device2.tcp dctcpGamma 0.0625
par Baseline.device2.tn typename "\"inet.common.MessageDispatcher\""
par Baseline.device2.tn displayStringTextFormat "\"processed %p pk (%l)\""
par Baseline.device2.tn forwardServiceRegistration true
par Baseline.device2.tn forwardProtocolRegistration true
par Baseline.device2.app[0].sink typename "\"inet.queueing.sink.PassivePacketSink\""
par Baseline.device2.app[0].sink displayStringTextFormat "\"received %p pk (%l)\""
par Baseline.device2.app[0].sink clockModule "\"\""
par Baseline.device2.app[0].sink initialConsumptionOffset 0s
attr unit s
par Baseline.device2.app[0].sink consumptionInterval 0s
attr unit s
par Baseline.device2.app[0].sink scheduleForAbsoluteTime true
scalar Baseline.device2.app[0].sink packets:count 200
attr recordingmode count
attr source packetPushed
attr title "packets, count"
attr unit pk
scalar Baseline.device2.app[0].sink packetLengths:sum 1513600
attr interpolationmode none
attr recordingmode sum
attr source packetLength(packetPushed)
attr title "packet lengths, sum"
attr unit b
statistic Baseline.device2.app[0].sink packetLengths:histogram
field count 200
field mean 7568
field stddev 0
field min 7568
field max 7568
field sum 1513600
field sqrsum 11454924800
attr interpolationmode none
attr recordingmode histogram
attr source packetLength(packetPushed)
attr title "packet lengths"
attr unit b
bin	-inf	0
bin	7567	0
bin	7568	200
bin	7569	0
statistic Baseline.device2.app[0].sink meanBitLifeTimePerPacket:histogram
field count 199
field mean 0.005569381222407
field stddev 0.00047982021025629
field min 0.004535098588
field max 0.007205919865
field sum 1.108306863259
field sqrsum 0.0062181684648653
attr interpolationmode none
attr recordingmode histogram
attr source weightedMeanPerGroup(groupRegionsPerPacket(lifeTimePerRegion(packetPushed)))
attr title "mean bit life time per packet"
attr unit s
bin	-inf	0
bin	0.0039	0
bin	0.00395	0
bin	0.004	0
bin	0.00405	0
bin	0.0041	0
bin	0.00415	0
bin	0.0042	0
bin	0.00425	0
bin	0.0043	0
bin	0.00435	0
bin	0.0044	0
bin	0.00445	0
bin	0.0045	1
bin	0.00455	0
bin	0.0046	0
bin	0.00465	3
bin	0.0047	1
bin	0.00475	1
bin	0.0048	4
bin	0.00485	2
bin	0.0049	4
bin	0.00495	6
bin	0.005	5
bin	0.00505	6
bin	0.0051	4
bin	0.00515	9
bin	0.0052	8
bin	0.00525	9
bin	0.0053	5
bin	0.00535	10
bin	0.0054	9
bin	0.00545	10
bin	0.0055	7
bin	0.00555	9
bin	0.0056	8
bin	0.00565	6
bin	0.0057	6
bin	0.00575	8
bin	0.0058	5
bin	0.00585	7
bin	0.0059	7
bin	0.00595	7
bin	0.006	2
bin	0.00605	2
bin	0.0061	2
bin	0.00615	5
bin	0.0062	4
bin	0.00625	2
bin	0.0063	2
bin	0.00635	1
bin	0.0064	4
bin	0.00645	1
bin	0.0065	2
bin	0.00655	0
bin	0.0066	1
bin	0.00665	0
bin	0.0067	0
bin	0.00675	0
bin	0.0068	1
bin	0.00685	1
bin	0.0069	0
bin	0.00695	0
bin	0.007	0
bin	0.00705	1
bin	0.0071	0
bin	0.00715	0
bin	0.0072	1
bin	0.00725	0
bin	0.0073	0
bin	0.00735	0
bin	0.0074	0
bin	0.00745	0
bin	0.0075	0
bin	0.00755	0
bin	0.0076	0
bin	0.00765	0
bin	0.0077	0
statistic Baseline.device2.app[0].sink packetJitter:histogram
field count 199
field mean 2.8196072080402e-05
field stddev 0.00082662553236767
field min -0.002118420124
field max 0.00680379335
field sum 0.005611018344
field sqrsum 0.00013545354328857
attr interpolationmode none
attr recordingmode histogram
attr source jitter(weightedMeanPerGroup(groupRegionsPerPacket(lifeTimePerRegion(packetPushed))))
attr title "packet jitter"
attr unit s
bin	-inf	0
bin	-0.0034	0
bin	-0.0032	0
bin	-0.003	0
bin	-0.0028	0
bin	-0.0026	0
bin	-0.0024	0
bin	-0.0022	1
bin	-0.002	0
bin	-0.0018	0
bin	-0.0016	2
bin	-0.0014	6
bin	-0.0012	4
bin	-0.001	14
bin	-0.0008	11
bin	-0.0006	12
bin	-0.0004	22
bin	-0.0002	21
bin	0	30
bin	0.0002	23
bin	0.0004	19
bin	0.0006	13
bin	0.0008	12
bin	0.001	1
bin	0.0012	2
bin	0.0014	1
bin	0.0016	2
bin	0.0018	1
bin	0.002	1
bin	0.0022	0
bin	0.0024	0
bin	0.0026	0
bin	0.0028	0
bin	0.003	0
bin	0.0032	0
bin	0.0034	0
bin	0.0036	0
bin	0.0038	0
bin	0.004	0
bin	0.0042	0
bin	0.0044	0
bin	0.0046	0
bin	0.0048	0
bin	0.005	0
bin	0.0052	0
bin	0.0054	0
bin	0.0056	0
bin	0.0058	0
bin	0.006	0
bin	0.0062	0
bin	0.0064	0
bin	0.0066	0
bin	0.0068	1
bin	0.007	0
bin	0.0072	0
bin	0.0074	0
bin	0.0076	0
bin	0.0078	0
bin	0.008	0
bin	0.0082	0
bin	0.0084	0
bin	0.0086	0
bin	0.0088	0
bin	0.009	0
statistic Baseline.device2.app[0].sink packetDelayDifferenceToMean:histogram
field count 199
field mean 6.1262018702889e-05
field stddev 0.00046883239407708
field min -0.0016329147651297
field max 0.0010416046133932
field sum 0.012191141721875
field sqrsum 4.4268009071913e-05
attr interpolationmode none
attr recordingmode histogram
attr source differenceToMean(weightedMeanPerGroup(groupRegionsPerPacket(lifeTimePerRegion(packetPushed))))
attr title "packet delay difference to mean"
attr unit s
bin	-inf	0
bin	-0.0021	0
bin	-0.00205	0
bin	-0.002	0
bin	-0.00195	0
bin	-0.0019	0
bin	-0.00185	0
bin	-0.0018	0
bin	-0.00175	0
bin	-0.0017	0
bin	-0.00165	1
bin	-0.0016	0
bin	-0.00155	0
bin	-0.0015	1
bin	-0.00145	0
bin	-0.0014	0
bin	-0.00135	0
bin	-0.0013	1
bin	-0.00125	0
bin	-0.0012	0
bin	-0.00115	0
bin	-0.0011	0
bin	-0.00105	1
bin	-0.001	0
bin	-0.00095	1
bin	-0.0009	1
bin	-0.00085	2
bin	-0.0008	2
bin	-0.00075	1
bin	-0.0007	3
bin	-0.00065	3
bin	-0.0006	5
bin	-0.00055	1
bin	-0.0005	3
bin	-0.00045	3
bin	-0.0004	7
bin	-0.00035	6
bin	-0.0003	9
bin	-0.00025	5
bin	-0.0002	4
bin	-0.00015	6
bin	-0.0001	7
bin	-5e-05	7
bin	0	11
bin	5e-05	8
bin	0.0001	11
bin	0.00015	7
bin	0.0002	7
bin	0.00025	8
bin	0.0003	9
bin	0.00035	9
bin	0.0004	7
bin	0.00045	5
bin	0.0005	6
bin	0.00055	7
bin	0.0006	7
bin	0.00065	3
bin	0.0007	5
bin	0.00075	3
bin	0.0008	0
bin	0.00085	4
bin	0.0009	1
bin	0.00095	0
bin	0.001	1
bin	0.00105	0
bin	0.0011	0
bin	0.00115	0
bin	0.0012	0
bin	0.00125	0
bin	0.0013	0
bin	0.00135	0
bin	0.0014	0
bin	0.00145	0
bin	0.0015	0
bin	0.00155	0
bin	0.0016	0
bin	0.00165	0
bin	0.0017	0
statistic Baseline.device2.app[0].sink packetDelayVariation:histogram
field count 199
field mean 0.00047269280329939
field stddev 3.8934823007069e-05
field min 0
field max 0.00062965565506374
field sum 0.094065867856578
field sqrsum 4.4764411019549e-05
attr recordingmode histogram
attr source stddev(weightedMeanPerGroup(groupRegionsPerPacket(lifeTimePerRegion(packetPushed))))
attr title "packet delay variation"
attr unit s
bin	-inf	0
bin	0	1
bin	1e-05	0
bin	2e-05	0
bin	3e-05	0
bin	4e-05	0
bin	5e-05	0
bin	6e-05	0
bin	7e-05	0
bin	8e-05	0
bin	9e-05	0
bin	0.0001	0
bin	0.00011	0
bin	0.00012	0
bin	0.00013	0
bin	0.00014	0
bin	0.00015	0
bin	0.00016	0
bin	0.00017	0
bin	0.00018	0
bin	0.00019	0
bin	0.0002	0
bin	0.00021	0
bin	0.00022	0
bin	0.00023	0
bin	0.00024	0
bin	0.00025	0
bin	0.00026	0
bin	0.00027	0
bin	0.00028	0
bin	0.00029	0
bin	0.0003	0
bin	0.00031	0
bin	0.00032	0
bin	0.00033	0
bin	0.00034	0
bin	0.00035	0
bin	0.00036	0
bin	0.00037	0
bin	0.00038	0
bin	0.00039	0
bin	0.0004	0
bin	0.00041	0
bin	0.00042	0
bin	0.00043	3
bin	0.00044	10
bin	0.00045	20
bin	0.00046	31
bin	0.00047	70
bin	0.00048	46
bin	0.00049	9
bin	0.0005	3
bin	0.00051	0
bin	0.00052	2
bin	0.00053	2
bin	0.00054	0
bin	0.00055	0
bin	0.00056	1
bin	0.00057	0
bin	0.00058	0
bin	0.00059	0
bin	0.0006	0
bin	0.00061	0
bin	0.00062	1
bin	0.00063	0
bin	0.00064	0
bin	0.00065	0
bin	0.00066	0
bin	0.00067	0
bin	0.00068	0
bin	0.00069	0
bin	0.0007	0
bin	0.00071	0
bin	0.00072	0
bin	0.00073	0
bin	0.00074	0
bin	0.00075	0
bin	0.00076	0
bin	0.00077	0
bin	0.00078	0
bin	0.00079	0
scalar Baseline.device2.app[0].sink droppedPackets:count 200
attr recordingmode count
attr source packetDropped
attr title "dropped packets, count"
attr unit pk
scalar Baseline.device2.app[0].sink droppedPacketLengths:sum 1513600
attr interpolationmode none
attr recordingmode sum
attr source packetLength(packetDropped)
attr title "dropped packet lengths, sum"
attr unit b
statistic Baseline.device2.app[0].sink droppedPacketLengths:histogram
field count 200
field mean 7568
field stddev 0
field min 7568
field max 7568
field sum 1513600
field sqrsum 11454924800
attr interpolationmode none
attr recordingmode histogram
attr source packetLength(packetDropped)
attr title "dropped packet lengths"
attr unit b
bin	-inf	0
bin	7567	0
bin	7568	200
bin	7569	0
par Baseline.device2.app[0].io typename "\"inet.applications.udpapp.UdpSocketIo\""
par Baseline.device2.app[0].io interfaceTableModule "\"Baseline.device2.app[0].interfaceTable\""
par Baseline.device2.app[0].io localAddress "\"\""
par Baseline.device2.app[0].io localPort 1001
par Baseline.device2.app[0].io destAddress "\"\""
par Baseline.device2.app[0].io destPort -1
par Baseline.device2.app[0].io timeToLive -1
par Baseline.device2.app[0].io dontFragment false
par Baseline.device2.app[0].io dscp -1
par Baseline.device2.app[0].io tos -1
par Baseline.device2.app[0].io multicastInterface "\"\""
par Baseline.device2.app[0].io multicastAddresses []
par Baseline.device2.app[0].io receiveBroadcast false
par Baseline.device2.app[0].io joinLocalMulticastGroups false
par Baseline.device2.app[0].io stopOperationExtraTime -1s
attr unit s
par Baseline.device2.app[0].io stopOperationTimeout 2s
attr unit s
scalar Baseline.device2.app[0].io "packets sent" 0
scalar Baseline.device2.app[0].io "packets received" 200
scalar Baseline.device2.app[0].io packetReceived:count 200
attr interpolationmode none
attr recordingmode count
attr source packetReceived
attr title "packets received, count"
scalar Baseline.device2.app[0].io packetReceived:sum(packetBytes) 189200
attr interpolationmode none
attr recordingmode sum(packetBytes)
attr source packetReceived
attr title "packets received, sum(packetBytes)"
scalar Baseline.device2.app[0].io packetSent:count 0
attr interpolationmode none
attr recordingmode count
attr source packetSent
attr title "packets sent, count"
scalar Baseline.device2.app[0].io packetSent:sum(packetBytes) 0
attr interpolationmode none
attr recordingmode sum(packetBytes)
attr source packetSent
attr title "packets sent, sum(packetBytes)"
par Baseline.device2.app[0] typename "\"inet.applications.udpapp.UdpSinkApp\""
par Baseline.device2.app[0] interfaceTableModule "\"Baseline.device2.interfaceTable\""
par Baseline.device2.at typename "\"inet.common.MessageDispatcher\""
par Baseline.device2.at displayStringTextFormat "\"processed %p pk (%l)\""
par Baseline.device2.at forwardServiceRegistration true
par Baseline.device2.at forwardProtocolRegistration true
par Baseline.device2 typename "\"inet.node.tsn.TsnDevice\""
par Baseline.device2 hasStatus false
par Baseline.device2 osgModel "\"\""
par Baseline.device2 osgModelColor "\"\""
par Baseline.device2 canvasImage "\"\""
par Baseline.device2 canvasImageColor "\"\""
par Baseline.device2 recordPcap false
par Baseline.device2 numPcapRecorders 0
par Baseline.device2 numLoInterfaces 1
par Baseline.device2 numWlanInterfaces 0
par Baseline.device2 numEthInterfaces 0
par Baseline.device2 numPppInterfaces 0
par Baseline.device2 numTunInterfaces 0
par Baseline.device2 numVirtInterfaces 0
par Baseline.device2 fcsMode "\"declared\""
attr enum declared,computed
par Baseline.device2 hasIpv4 true
par Baseline.device2 hasIpv6 false
par Baseline.device2 hasGn false
par Baseline.device2 forwarding false
par Baseline.device2 multicastForwarding false
par Baseline.device2 hasUdp true
par Baseline.device2 hasTcp true
par Baseline.device2 hasSctp false
par Baseline.device2 numApps 1
par Baseline.device2 hasTimeSynchronization false
par Baseline.device2 hasIngressTrafficFiltering false
par Baseline.device2 hasEgressTrafficFiltering false
par Baseline.device2 hasEgressTrafficShaping true
par Baseline.device2 hasStreamRedundancy false
par Baseline.device2 hasIncomingStreams true
par Baseline.device2 hasOutgoingStreams false
par Baseline.device2 hasFramePreemption false
par Baseline.device2 hasCutthroughSwitching false
par Baseline typename "\"d6g.simulations.baseline.Baseline\""
par Baseline recordPcap false
par Baseline numPcapRecorders 0
par Baseline hasGlobalArp true

