version 3
run General-0-20250508-13:38:10-307
attr configname General
attr datetime 20250508-13:38:10
attr datetimef 20250508-133810
attr experiment General
attr inifile omnetpp.ini
attr iterationvars ""
attr iterationvarsd ""
attr iterationvarsf ""
attr measurement ""
attr network simpleTsn
attr processid 307
attr repetition 0
attr replication #0
attr resultdir results
attr runnumber 0
attr seedset 0
config image-path ../../../inet/images
config sim-time-limit 4s
config description "General configuration"
config network simpleTsn
config **.displayGateSchedules false
config **.gateScheduleVisualizer.height 14
config **.gateScheduleVisualizer.placementHint "\"bottom\""
config *.scenarioManager.script "xmldoc(\"scenario.xml\")"
config *.histogramContainer.histograms "{Uplink: \"../../../deterministic6g_data/PD-Wireless-5G-1/s1-UL_wall.xml\", Downlink: \"../../../deterministic6g_data/PD-Wireless-5G-1/s10-DL_wall.xml\"}"
config *.detCom.delayConfig "xmldoc(\"delays_example.xml\")"
config *.device1.numApps 3
config *.device1.app[0].typename SimpleUdpSourceApp
config *.device1.app[0].display-name stream1
config *.device1.app[0].io.destAddress "\"device2\""
config *.device1.app[0].io.destPort 1001
config *.device1.app[0].source.packetLength "1000B - 54B"
config *.device1.app[0].source.productionInterval 200ms
config *.device1.app[0].source.initialProductionOffset 1s
config *.device1.app[1].typename SimpleUdpSinkApp
config *.device1.app[1].io.localPort 1002
config *.device1.app[2].typename SimpleUdpSourceApp
config *.device1.app[2].display-name stream3
config *.device1.app[2].io.destAddress "\"device2\""
config *.device1.app[2].io.destPort 1003
config *.device1.app[2].source.packetLength "1000B - 54B"
config *.device1.app[2].source.productionInterval 50ms
config *.device1.app[2].source.initialProductionOffset 2s
config *.device2.numApps 3
config *.device2.app[0].typename SimpleUdpSinkApp
config *.device2.app[0].io.localPort 1001
config *.device2.app[1].typename SimpleUdpSourceApp
config *.device2.app[1].display-name stream2
config *.device2.app[1].io.destAddress "\"device1\""
config *.device2.app[1].io.destPort 1002
config *.device2.app[1].source.packetLength "1000B - 54B"
config *.device2.app[1].source.productionInterval 100ms
config *.device2.app[1].source.initialProductionOffset 3s
config *.device2.app[2].typename SimpleUdpSinkApp
config *.device2.app[2].io.localPort 1003
config *.device1.app[0].source.streamingEnabled false
config *.device1.app[2].source.streamingEnabled false
config *.device2.app[1].source.streamingEnabled false
config **.streamIdentifier.identifier.mapping "[{stream: \"stream1\", packetFilter: expr(udp.destPort == 1001)}, \n\t\t\t\t\t\t\t\t\t\t  {stream: \"stream2\", packetFilter: expr(udp.destPort == 1002)},\n\t\t\t\t\t\t\t\t\t\t  {stream: \"stream3\", packetFilter: expr(udp.destPort == 1003)}]"
config **.streamCoder.*.mapping "[{stream: \"stream1\", pcp: 4, vlan: 1},\n\t\t\t\t\t\t\t{stream: \"stream2\", pcp: 4, vlan: 5},\n\t\t\t\t\t\t\t{stream: \"stream3\", pcp: 4, vlan: 5}]"
config *.bridge*.bridging.directionReverser.reverser.excludeEncapsulationProtocols "[\"ieee8021qctag\"]"
config *.bridge*.ieee8021q.qTagHeaderChecker.vlanIdFilter [1,5]
config *.bridge*.eth[*].macLayer.queue.*[0].display-name "best effort"
config *.bridge*.eth[*].macLayer.queue.*[1].display-name video
config *.bridge*.eth[*].macLayer.queue.*[2].display-name control
config *.bridge*.eth[*].macLayer.queue.*[3].display-name p3
config *.bridge*.eth[*].macLayer.queue.*[4].display-name p4
config *.bridge*.eth[*].macLayer.queue.*[5].display-name p5
config *.bridge*.eth[*].macLayer.queue.*[6].display-name p6
config *.bridge*.eth[*].macLayer.queue.*[7].display-name p7
config *.macForwardingTableConfigurator.typename ""
config **.bridge1.macTable.forwardingTable "[{address: \"device2\", vlan: 1, interface: \"eth2\"},{address: \"device1\", vlan: 5, interface: \"eth0\"},{address: \"device2\", vlan: 5, interface: \"eth1\"}]"
config **.bridge2.macTable.forwardingTable "[{address: \"device2\", vlan: 1, interface: \"eth1\"},{address: \"device1\", vlan: 5, interface: \"eth0\"},{address: \"device2\", vlan: 5, interface: \"eth1\"}]"
config **.bridge3.macTable.forwardingTable "[{address: \"device2\", vlan: 1, interface: \"eth1\"}]"

vector 0 simpleTsn.device1.eth[0].phyLayer.interFrameGapInserter interpacketGap:vector ETV
attr interpolationmode sample-hold
attr recordingmode vector
attr source "count(interpacketGapStarted) - count(interpacketGapEnded)"
attr title "interpacket gap state"
attr type int
vector 1 simpleTsn.device1.eth[0].phyLayer.transmitter transmitting:vector ETV
attr interpolationmode sample-hold
attr recordingmode vector
attr source "count(transmissionStarted) - count(transmissionEnded)"
attr title "transmitting state"
attr type int
vector 2 simpleTsn.device1.udp passedUpPk:vector(count) ETV
attr interpolationmode none
attr recordingmode vector(count)
attr source packetSentToUpper
attr title "packets passed up, count"
vector 3 simpleTsn.device1.udp droppedPkWrongPort:vector(count) ETV
attr interpolationmode none
attr recordingmode vector(count)
attr source packetDropReasonIsNoPortFound(packetDropped)
attr title "packets dropped (wrong port), count"
vector 4 simpleTsn.device1.udp droppedPkBadChecksum:vector(count) ETV
attr interpolationmode none
attr recordingmode vector(count)
attr source packetDropReasonIsIncorrectlyReceived(packetDropped)
attr title "packets dropped (checksum error), count"
vector 5 simpleTsn.detCom.dstt[0].eth[0].phyLayer.interFrameGapInserter interpacketGap:vector ETV
attr interpolationmode sample-hold
attr recordingmode vector
attr source "count(interpacketGapStarted) - count(interpacketGapEnded)"
attr title "interpacket gap state"
attr type int
vector 6 simpleTsn.detCom.dstt[0].eth[0].phyLayer.transmitter transmitting:vector ETV
attr interpolationmode sample-hold
attr recordingmode vector
attr source "count(transmissionStarted) - count(transmissionEnded)"
attr title "transmitting state"
attr type int
vector 7 simpleTsn.detCom.dstt[0].tt[0].phyLayer.interFrameGapInserter interpacketGap:vector ETV
attr interpolationmode sample-hold
attr recordingmode vector
attr source "count(interpacketGapStarted) - count(interpacketGapEnded)"
attr title "interpacket gap state"
attr type int
vector 8 simpleTsn.detCom.dstt[0].tt[0].phyLayer.transmitter transmitting:vector ETV
attr interpolationmode sample-hold
attr recordingmode vector
attr source "count(transmissionStarted) - count(transmissionEnded)"
attr title "transmitting state"
attr type int
vector 9 simpleTsn.detCom.nwtt.eth[0].phyLayer.interFrameGapInserter interpacketGap:vector ETV
attr interpolationmode sample-hold
attr recordingmode vector
attr source "count(interpacketGapStarted) - count(interpacketGapEnded)"
attr title "interpacket gap state"
attr type int
vector 10 simpleTsn.detCom.nwtt.eth[0].phyLayer.transmitter transmitting:vector ETV
attr interpolationmode sample-hold
attr recordingmode vector
attr source "count(transmissionStarted) - count(transmissionEnded)"
attr title "transmitting state"
attr type int
vector 11 simpleTsn.detCom.nwtt.tt[0].phyLayer.interFrameGapInserter interpacketGap:vector ETV
attr interpolationmode sample-hold
attr recordingmode vector
attr source "count(interpacketGapStarted) - count(interpacketGapEnded)"
attr title "interpacket gap state"
attr type int
vector 12 simpleTsn.detCom.nwtt.tt[0].phyLayer.transmitter transmitting:vector ETV
attr interpolationmode sample-hold
attr recordingmode vector
attr source "count(transmissionStarted) - count(transmissionEnded)"
attr title "transmitting state"
attr type int
vector 13 simpleTsn.bridge1.eth[0].phyLayer.interFrameGapInserter interpacketGap:vector ETV
attr interpolationmode sample-hold
attr recordingmode vector
attr source "count(interpacketGapStarted) - count(interpacketGapEnded)"
attr title "interpacket gap state"
attr type int
vector 14 simpleTsn.bridge1.eth[0].phyLayer.transmitter transmitting:vector ETV
attr interpolationmode sample-hold
attr recordingmode vector
attr source "count(transmissionStarted) - count(transmissionEnded)"
attr title "transmitting state"
attr type int
vector 15 simpleTsn.bridge1.eth[1].phyLayer.interFrameGapInserter interpacketGap:vector ETV
attr interpolationmode sample-hold
attr recordingmode vector
attr source "count(interpacketGapStarted) - count(interpacketGapEnded)"
attr title "interpacket gap state"
attr type int
vector 16 simpleTsn.bridge1.eth[1].phyLayer.transmitter transmitting:vector ETV
attr interpolationmode sample-hold
attr recordingmode vector
attr source "count(transmissionStarted) - count(transmissionEnded)"
attr title "transmitting state"
attr type int
vector 17 simpleTsn.bridge1.eth[2].phyLayer.interFrameGapInserter interpacketGap:vector ETV
attr interpolationmode sample-hold
attr recordingmode vector
attr source "count(interpacketGapStarted) - count(interpacketGapEnded)"
attr title "interpacket gap state"
attr type int
vector 18 simpleTsn.bridge1.eth[2].phyLayer.transmitter transmitting:vector ETV
attr interpolationmode sample-hold
attr recordingmode vector
attr source "count(transmissionStarted) - count(transmissionEnded)"
attr title "transmitting state"
attr type int
vector 19 simpleTsn.bridge2.eth[0].phyLayer.interFrameGapInserter interpacketGap:vector ETV
attr interpolationmode sample-hold
attr recordingmode vector
attr source "count(interpacketGapStarted) - count(interpacketGapEnded)"
attr title "interpacket gap state"
attr type int
vector 20 simpleTsn.bridge2.eth[0].phyLayer.transmitter transmitting:vector ETV
attr interpolationmode sample-hold
attr recordingmode vector
attr source "count(transmissionStarted) - count(transmissionEnded)"
attr title "transmitting state"
attr type int
vector 21 simpleTsn.bridge2.eth[1].phyLayer.interFrameGapInserter interpacketGap:vector ETV
attr interpolationmode sample-hold
attr recordingmode vector
attr source "count(interpacketGapStarted) - count(interpacketGapEnded)"
attr title "interpacket gap state"
attr type int
vector 22 simpleTsn.bridge2.eth[1].phyLayer.transmitter transmitting:vector ETV
attr interpolationmode sample-hold
attr recordingmode vector
attr source "count(transmissionStarted) - count(transmissionEnded)"
attr title "transmitting state"
attr type int
vector 23 simpleTsn.bridge2.eth[2].phyLayer.interFrameGapInserter interpacketGap:vector ETV
attr interpolationmode sample-hold
attr recordingmode vector
attr source "count(interpacketGapStarted) - count(interpacketGapEnded)"
attr title "interpacket gap state"
attr type int
vector 24 simpleTsn.bridge2.eth[2].phyLayer.transmitter transmitting:vector ETV
attr interpolationmode sample-hold
attr recordingmode vector
attr source "count(transmissionStarted) - count(transmissionEnded)"
attr title "transmitting state"
attr type int
vector 25 simpleTsn.bridge3.eth[0].phyLayer.interFrameGapInserter interpacketGap:vector ETV
attr interpolationmode sample-hold
attr recordingmode vector
attr source "count(interpacketGapStarted) - count(interpacketGapEnded)"
attr title "interpacket gap state"
attr type int
vector 26 simpleTsn.bridge3.eth[0].phyLayer.transmitter transmitting:vector ETV
attr interpolationmode sample-hold
attr recordingmode vector
attr source "count(transmissionStarted) - count(transmissionEnded)"
attr title "transmitting state"
attr type int
vector 27 simpleTsn.bridge3.eth[1].phyLayer.interFrameGapInserter interpacketGap:vector ETV
attr interpolationmode sample-hold
attr recordingmode vector
attr source "count(interpacketGapStarted) - count(interpacketGapEnded)"
attr title "interpacket gap state"
attr type int
vector 28 simpleTsn.bridge3.eth[1].phyLayer.transmitter transmitting:vector ETV
attr interpolationmode sample-hold
attr recordingmode vector
attr source "count(transmissionStarted) - count(transmissionEnded)"
attr title "transmitting state"
attr type int
vector 29 simpleTsn.device2.eth[0].phyLayer.interFrameGapInserter interpacketGap:vector ETV
attr interpolationmode sample-hold
attr recordingmode vector
attr source "count(interpacketGapStarted) - count(interpacketGapEnded)"
attr title "interpacket gap state"
attr type int
vector 30 simpleTsn.device2.eth[0].phyLayer.transmitter transmitting:vector ETV
attr interpolationmode sample-hold
attr recordingmode vector
attr source "count(transmissionStarted) - count(transmissionEnded)"
attr title "transmitting state"
attr type int
vector 31 simpleTsn.device2.udp passedUpPk:vector(count) ETV
attr interpolationmode none
attr recordingmode vector(count)
attr source packetSentToUpper
attr title "packets passed up, count"
vector 32 simpleTsn.device2.udp droppedPkWrongPort:vector(count) ETV
attr interpolationmode none
attr recordingmode vector(count)
attr source packetDropReasonIsNoPortFound(packetDropped)
attr title "packets dropped (wrong port), count"
vector 33 simpleTsn.device2.udp droppedPkBadChecksum:vector(count) ETV
attr interpolationmode none
attr recordingmode vector(count)
attr source packetDropReasonIsIncorrectlyReceived(packetDropped)
attr title "packets dropped (checksum error), count"
vector 34 simpleTsn.device1.eth[0].macLayer.queue.transmissionGate[0] gateState:vector ETV
attr enum CLOSED,OPEN
attr interpolationmode sample-hold
attr recordingmode vector
attr source gateStateChanged
attr title "gate state"
attr type enum
vector 35 simpleTsn.device1.eth[0].macLayer.queue.transmissionGate[0] guardBandState:vector ETV
attr enum ON,OFF
attr interpolationmode sample-hold
attr recordingmode vector
attr source guardBandStateChanged
attr title "guard band state"
attr type enum
vector 36 simpleTsn.device1.eth[0].macLayer.queue.transmissionGate[1] gateState:vector ETV
attr enum CLOSED,OPEN
attr interpolationmode sample-hold
attr recordingmode vector
attr source gateStateChanged
attr title "gate state"
attr type enum
vector 37 simpleTsn.device1.eth[0].macLayer.queue.transmissionGate[1] guardBandState:vector ETV
attr enum ON,OFF
attr interpolationmode sample-hold
attr recordingmode vector
attr source guardBandStateChanged
attr title "guard band state"
attr type enum
vector 38 simpleTsn.device1.eth[0].macLayer.queue.transmissionGate[2] gateState:vector ETV
attr enum CLOSED,OPEN
attr interpolationmode sample-hold
attr recordingmode vector
attr source gateStateChanged
attr title "gate state"
attr type enum
vector 39 simpleTsn.device1.eth[0].macLayer.queue.transmissionGate[2] guardBandState:vector ETV
attr enum ON,OFF
attr interpolationmode sample-hold
attr recordingmode vector
attr source guardBandStateChanged
attr title "guard band state"
attr type enum
vector 40 simpleTsn.device1.eth[0].macLayer.queue.transmissionGate[3] gateState:vector ETV
attr enum CLOSED,OPEN
attr interpolationmode sample-hold
attr recordingmode vector
attr source gateStateChanged
attr title "gate state"
attr type enum
vector 41 simpleTsn.device1.eth[0].macLayer.queue.transmissionGate[3] guardBandState:vector ETV
attr enum ON,OFF
attr interpolationmode sample-hold
attr recordingmode vector
attr source guardBandStateChanged
attr title "guard band state"
attr type enum
vector 42 simpleTsn.device1.eth[0].macLayer.queue.transmissionGate[4] gateState:vector ETV
attr enum CLOSED,OPEN
attr interpolationmode sample-hold
attr recordingmode vector
attr source gateStateChanged
attr title "gate state"
attr type enum
vector 43 simpleTsn.device1.eth[0].macLayer.queue.transmissionGate[4] guardBandState:vector ETV
attr enum ON,OFF
attr interpolationmode sample-hold
attr recordingmode vector
attr source guardBandStateChanged
attr title "guard band state"
attr type enum
vector 44 simpleTsn.device1.eth[0].macLayer.queue.transmissionGate[5] gateState:vector ETV
attr enum CLOSED,OPEN
attr interpolationmode sample-hold
attr recordingmode vector
attr source gateStateChanged
attr title "gate state"
attr type enum
vector 45 simpleTsn.device1.eth[0].macLayer.queue.transmissionGate[5] guardBandState:vector ETV
attr enum ON,OFF
attr interpolationmode sample-hold
attr recordingmode vector
attr source guardBandStateChanged
attr title "guard band state"
attr type enum
vector 46 simpleTsn.device1.eth[0].macLayer.queue.transmissionGate[6] gateState:vector ETV
attr enum CLOSED,OPEN
attr interpolationmode sample-hold
attr recordingmode vector
attr source gateStateChanged
attr title "gate state"
attr type enum
vector 47 simpleTsn.device1.eth[0].macLayer.queue.transmissionGate[6] guardBandState:vector ETV
attr enum ON,OFF
attr interpolationmode sample-hold
attr recordingmode vector
attr source guardBandStateChanged
attr title "guard band state"
attr type enum
vector 48 simpleTsn.device1.eth[0].macLayer.queue.transmissionGate[7] gateState:vector ETV
attr enum CLOSED,OPEN
attr interpolationmode sample-hold
attr recordingmode vector
attr source gateStateChanged
attr title "gate state"
attr type enum
vector 49 simpleTsn.device1.eth[0].macLayer.queue.transmissionGate[7] guardBandState:vector ETV
attr enum ON,OFF
attr interpolationmode sample-hold
attr recordingmode vector
attr source guardBandStateChanged
attr title "guard band state"
attr type enum
vector 50 simpleTsn.detCom.dstt[0].eth[0].macLayer.queue.transmissionGate[0] gateState:vector ETV
attr enum CLOSED,OPEN
attr interpolationmode sample-hold
attr recordingmode vector
attr source gateStateChanged
attr title "gate state"
attr type enum
vector 51 simpleTsn.detCom.dstt[0].eth[0].macLayer.queue.transmissionGate[0] guardBandState:vector ETV
attr enum ON,OFF
attr interpolationmode sample-hold
attr recordingmode vector
attr source guardBandStateChanged
attr title "guard band state"
attr type enum
vector 52 simpleTsn.detCom.dstt[0].eth[0].macLayer.queue.transmissionGate[1] gateState:vector ETV
attr enum CLOSED,OPEN
attr interpolationmode sample-hold
attr recordingmode vector
attr source gateStateChanged
attr title "gate state"
attr type enum
vector 53 simpleTsn.detCom.dstt[0].eth[0].macLayer.queue.transmissionGate[1] guardBandState:vector ETV
attr enum ON,OFF
attr interpolationmode sample-hold
attr recordingmode vector
attr source guardBandStateChanged
attr title "guard band state"
attr type enum
vector 54 simpleTsn.detCom.dstt[0].eth[0].macLayer.queue.transmissionGate[2] gateState:vector ETV
attr enum CLOSED,OPEN
attr interpolationmode sample-hold
attr recordingmode vector
attr source gateStateChanged
attr title "gate state"
attr type enum
vector 55 simpleTsn.detCom.dstt[0].eth[0].macLayer.queue.transmissionGate[2] guardBandState:vector ETV
attr enum ON,OFF
attr interpolationmode sample-hold
attr recordingmode vector
attr source guardBandStateChanged
attr title "guard band state"
attr type enum
vector 56 simpleTsn.detCom.dstt[0].eth[0].macLayer.queue.transmissionGate[3] gateState:vector ETV
attr enum CLOSED,OPEN
attr interpolationmode sample-hold
attr recordingmode vector
attr source gateStateChanged
attr title "gate state"
attr type enum
vector 57 simpleTsn.detCom.dstt[0].eth[0].macLayer.queue.transmissionGate[3] guardBandState:vector ETV
attr enum ON,OFF
attr interpolationmode sample-hold
attr recordingmode vector
attr source guardBandStateChanged
attr title "guard band state"
attr type enum
vector 58 simpleTsn.detCom.dstt[0].eth[0].macLayer.queue.transmissionGate[4] gateState:vector ETV
attr enum CLOSED,OPEN
attr interpolationmode sample-hold
attr recordingmode vector
attr source gateStateChanged
attr title "gate state"
attr type enum
vector 59 simpleTsn.detCom.dstt[0].eth[0].macLayer.queue.transmissionGate[4] guardBandState:vector ETV
attr enum ON,OFF
attr interpolationmode sample-hold
attr recordingmode vector
attr source guardBandStateChanged
attr title "guard band state"
attr type enum
vector 60 simpleTsn.detCom.dstt[0].eth[0].macLayer.queue.transmissionGate[5] gateState:vector ETV
attr enum CLOSED,OPEN
attr interpolationmode sample-hold
attr recordingmode vector
attr source gateStateChanged
attr title "gate state"
attr type enum
vector 61 simpleTsn.detCom.dstt[0].eth[0].macLayer.queue.transmissionGate[5] guardBandState:vector ETV
attr enum ON,OFF
attr interpolationmode sample-hold
attr recordingmode vector
attr source guardBandStateChanged
attr title "guard band state"
attr type enum
vector 62 simpleTsn.detCom.dstt[0].eth[0].macLayer.queue.transmissionGate[6] gateState:vector ETV
attr enum CLOSED,OPEN
attr interpolationmode sample-hold
attr recordingmode vector
attr source gateStateChanged
attr title "gate state"
attr type enum
vector 63 simpleTsn.detCom.dstt[0].eth[0].macLayer.queue.transmissionGate[6] guardBandState:vector ETV
attr enum ON,OFF
attr interpolationmode sample-hold
attr recordingmode vector
attr source guardBandStateChanged
attr title "guard band state"
attr type enum
vector 64 simpleTsn.detCom.dstt[0].eth[0].macLayer.queue.transmissionGate[7] gateState:vector ETV
attr enum CLOSED,OPEN
attr interpolationmode sample-hold
attr recordingmode vector
attr source gateStateChanged
attr title "gate state"
attr type enum
vector 65 simpleTsn.detCom.dstt[0].eth[0].macLayer.queue.transmissionGate[7] guardBandState:vector ETV
attr enum ON,OFF
attr interpolationmode sample-hold
attr recordingmode vector
attr source guardBandStateChanged
attr title "guard band state"
attr type enum
vector 66 simpleTsn.detCom.dstt[0].tt[0].macLayer.queue.transmissionGate[0] gateState:vector ETV
attr enum CLOSED,OPEN
attr interpolationmode sample-hold
attr recordingmode vector
attr source gateStateChanged
attr title "gate state"
attr type enum
vector 67 simpleTsn.detCom.dstt[0].tt[0].macLayer.queue.transmissionGate[0] guardBandState:vector ETV
attr enum ON,OFF
attr interpolationmode sample-hold
attr recordingmode vector
attr source guardBandStateChanged
attr title "guard band state"
attr type enum
vector 68 simpleTsn.detCom.dstt[0].tt[0].macLayer.queue.transmissionGate[1] gateState:vector ETV
attr enum CLOSED,OPEN
attr interpolationmode sample-hold
attr recordingmode vector
attr source gateStateChanged
attr title "gate state"
attr type enum
vector 69 simpleTsn.detCom.dstt[0].tt[0].macLayer.queue.transmissionGate[1] guardBandState:vector ETV
attr enum ON,OFF
attr interpolationmode sample-hold
attr recordingmode vector
attr source guardBandStateChanged
attr title "guard band state"
attr type enum
vector 70 simpleTsn.detCom.dstt[0].tt[0].macLayer.queue.transmissionGate[2] gateState:vector ETV
attr enum CLOSED,OPEN
attr interpolationmode sample-hold
attr recordingmode vector
attr source gateStateChanged
attr title "gate state"
attr type enum
vector 71 simpleTsn.detCom.dstt[0].tt[0].macLayer.queue.transmissionGate[2] guardBandState:vector ETV
attr enum ON,OFF
attr interpolationmode sample-hold
attr recordingmode vector
attr source guardBandStateChanged
attr title "guard band state"
attr type enum
vector 72 simpleTsn.detCom.dstt[0].tt[0].macLayer.queue.transmissionGate[3] gateState:vector ETV
attr enum CLOSED,OPEN
attr interpolationmode sample-hold
attr recordingmode vector
attr source gateStateChanged
attr title "gate state"
attr type enum
vector 73 simpleTsn.detCom.dstt[0].tt[0].macLayer.queue.transmissionGate[3] guardBandState:vector ETV
attr enum ON,OFF
attr interpolationmode sample-hold
attr recordingmode vector
attr source guardBandStateChanged
attr title "guard band state"
attr type enum
vector 74 simpleTsn.detCom.dstt[0].tt[0].macLayer.queue.transmissionGate[4] gateState:vector ETV
attr enum CLOSED,OPEN
attr interpolationmode sample-hold
attr recordingmode vector
attr source gateStateChanged
attr title "gate state"
attr type enum
vector 75 simpleTsn.detCom.dstt[0].tt[0].macLayer.queue.transmissionGate[4] guardBandState:vector ETV
attr enum ON,OFF
attr interpolationmode sample-hold
attr recordingmode vector
attr source guardBandStateChanged
attr title "guard band state"
attr type enum
vector 76 simpleTsn.detCom.dstt[0].tt[0].macLayer.queue.transmissionGate[5] gateState:vector ETV
attr enum CLOSED,OPEN
attr interpolationmode sample-hold
attr recordingmode vector
attr source gateStateChanged
attr title "gate state"
attr type enum
vector 77 simpleTsn.detCom.dstt[0].tt[0].macLayer.queue.transmissionGate[5] guardBandState:vector ETV
attr enum ON,OFF
attr interpolationmode sample-hold
attr recordingmode vector
attr source guardBandStateChanged
attr title "guard band state"
attr type enum
vector 78 simpleTsn.detCom.dstt[0].tt[0].macLayer.queue.transmissionGate[6] gateState:vector ETV
attr enum CLOSED,OPEN
attr interpolationmode sample-hold
attr recordingmode vector
attr source gateStateChanged
attr title "gate state"
attr type enum
vector 79 simpleTsn.detCom.dstt[0].tt[0].macLayer.queue.transmissionGate[6] guardBandState:vector ETV
attr enum ON,OFF
attr interpolationmode sample-hold
attr recordingmode vector
attr source guardBandStateChanged
attr title "guard band state"
attr type enum
vector 80 simpleTsn.detCom.dstt[0].tt[0].macLayer.queue.transmissionGate[7] gateState:vector ETV
attr enum CLOSED,OPEN
attr interpolationmode sample-hold
attr recordingmode vector
attr source gateStateChanged
attr title "gate state"
attr type enum
vector 81 simpleTsn.detCom.dstt[0].tt[0].macLayer.queue.transmissionGate[7] guardBandState:vector ETV
attr enum ON,OFF
attr interpolationmode sample-hold
attr recordingmode vector
attr source guardBandStateChanged
attr title "guard band state"
attr type enum
vector 82 simpleTsn.detCom.nwtt.eth[0].macLayer.queue.transmissionGate[0] gateState:vector ETV
attr enum CLOSED,OPEN
attr interpolationmode sample-hold
attr recordingmode vector
attr source gateStateChanged
attr title "gate state"
attr type enum
vector 83 simpleTsn.detCom.nwtt.eth[0].macLayer.queue.transmissionGate[0] guardBandState:vector ETV
attr enum ON,OFF
attr interpolationmode sample-hold
attr recordingmode vector
attr source guardBandStateChanged
attr title "guard band state"
attr type enum
vector 84 simpleTsn.detCom.nwtt.eth[0].macLayer.queue.transmissionGate[1] gateState:vector ETV
attr enum CLOSED,OPEN
attr interpolationmode sample-hold
attr recordingmode vector
attr source gateStateChanged
attr title "gate state"
attr type enum
vector 85 simpleTsn.detCom.nwtt.eth[0].macLayer.queue.transmissionGate[1] guardBandState:vector ETV
attr enum ON,OFF
attr interpolationmode sample-hold
attr recordingmode vector
attr source guardBandStateChanged
attr title "guard band state"
attr type enum
vector 86 simpleTsn.detCom.nwtt.eth[0].macLayer.queue.transmissionGate[2] gateState:vector ETV
attr enum CLOSED,OPEN
attr interpolationmode sample-hold
attr recordingmode vector
attr source gateStateChanged
attr title "gate state"
attr type enum
vector 87 simpleTsn.detCom.nwtt.eth[0].macLayer.queue.transmissionGate[2] guardBandState:vector ETV
attr enum ON,OFF
attr interpolationmode sample-hold
attr recordingmode vector
attr source guardBandStateChanged
attr title "guard band state"
attr type enum
vector 88 simpleTsn.detCom.nwtt.eth[0].macLayer.queue.transmissionGate[3] gateState:vector ETV
attr enum CLOSED,OPEN
attr interpolationmode sample-hold
attr recordingmode vector
attr source gateStateChanged
attr title "gate state"
attr type enum
vector 89 simpleTsn.detCom.nwtt.eth[0].macLayer.queue.transmissionGate[3] guardBandState:vector ETV
attr enum ON,OFF
attr interpolationmode sample-hold
attr recordingmode vector
attr source guardBandStateChanged
attr title "guard band state"
attr type enum
vector 90 simpleTsn.detCom.nwtt.eth[0].macLayer.queue.transmissionGate[4] gateState:vector ETV
attr enum CLOSED,OPEN
attr interpolationmode sample-hold
attr recordingmode vector
attr source gateStateChanged
attr title "gate state"
attr type enum
vector 91 simpleTsn.detCom.nwtt.eth[0].macLayer.queue.transmissionGate[4] guardBandState:vector ETV
attr enum ON,OFF
attr interpolationmode sample-hold
attr recordingmode vector
attr source guardBandStateChanged
attr title "guard band state"
attr type enum
vector 92 simpleTsn.detCom.nwtt.eth[0].macLayer.queue.transmissionGate[5] gateState:vector ETV
attr enum CLOSED,OPEN
attr interpolationmode sample-hold
attr recordingmode vector
attr source gateStateChanged
attr title "gate state"
attr type enum
vector 93 simpleTsn.detCom.nwtt.eth[0].macLayer.queue.transmissionGate[5] guardBandState:vector ETV
attr enum ON,OFF
attr interpolationmode sample-hold
attr recordingmode vector
attr source guardBandStateChanged
attr title "guard band state"
attr type enum
vector 94 simpleTsn.detCom.nwtt.eth[0].macLayer.queue.transmissionGate[6] gateState:vector ETV
attr enum CLOSED,OPEN
attr interpolationmode sample-hold
attr recordingmode vector
attr source gateStateChanged
attr title "gate state"
attr type enum
vector 95 simpleTsn.detCom.nwtt.eth[0].macLayer.queue.transmissionGate[6] guardBandState:vector ETV
attr enum ON,OFF
attr interpolationmode sample-hold
attr recordingmode vector
attr source guardBandStateChanged
attr title "guard band state"
attr type enum
vector 96 simpleTsn.detCom.nwtt.eth[0].macLayer.queue.transmissionGate[7] gateState:vector ETV
attr enum CLOSED,OPEN
attr interpolationmode sample-hold
attr recordingmode vector
attr source gateStateChanged
attr title "gate state"
attr type enum
vector 97 simpleTsn.detCom.nwtt.eth[0].macLayer.queue.transmissionGate[7] guardBandState:vector ETV
attr enum ON,OFF
attr interpolationmode sample-hold
attr recordingmode vector
attr source guardBandStateChanged
attr title "guard band state"
attr type enum
vector 98 simpleTsn.detCom.nwtt.tt[0].macLayer.queue.transmissionGate[0] gateState:vector ETV
attr enum CLOSED,OPEN
attr interpolationmode sample-hold
attr recordingmode vector
attr source gateStateChanged
attr title "gate state"
attr type enum
vector 99 simpleTsn.detCom.nwtt.tt[0].macLayer.queue.transmissionGate[0] guardBandState:vector ETV
attr enum ON,OFF
attr interpolationmode sample-hold
attr recordingmode vector
attr source guardBandStateChanged
attr title "guard band state"
attr type enum
vector 100 simpleTsn.detCom.nwtt.tt[0].macLayer.queue.transmissionGate[1] gateState:vector ETV
attr enum CLOSED,OPEN
attr interpolationmode sample-hold
attr recordingmode vector
attr source gateStateChanged
attr title "gate state"
attr type enum
vector 101 simpleTsn.detCom.nwtt.tt[0].macLayer.queue.transmissionGate[1] guardBandState:vector ETV
attr enum ON,OFF
attr interpolationmode sample-hold
attr recordingmode vector
attr source guardBandStateChanged
attr title "guard band state"
attr type enum
vector 102 simpleTsn.detCom.nwtt.tt[0].macLayer.queue.transmissionGate[2] gateState:vector ETV
attr enum CLOSED,OPEN
attr interpolationmode sample-hold
attr recordingmode vector
attr source gateStateChanged
attr title "gate state"
attr type enum
vector 103 simpleTsn.detCom.nwtt.tt[0].macLayer.queue.transmissionGate[2] guardBandState:vector ETV
attr enum ON,OFF
attr interpolationmode sample-hold
attr recordingmode vector
attr source guardBandStateChanged
attr title "guard band state"
attr type enum
vector 104 simpleTsn.detCom.nwtt.tt[0].macLayer.queue.transmissionGate[3] gateState:vector ETV
attr enum CLOSED,OPEN
attr interpolationmode sample-hold
attr recordingmode vector
attr source gateStateChanged
attr title "gate state"
attr type enum
vector 105 simpleTsn.detCom.nwtt.tt[0].macLayer.queue.transmissionGate[3] guardBandState:vector ETV
attr enum ON,OFF
attr interpolationmode sample-hold
attr recordingmode vector
attr source guardBandStateChanged
attr title "guard band state"
attr type enum
vector 106 simpleTsn.detCom.nwtt.tt[0].macLayer.queue.transmissionGate[4] gateState:vector ETV
attr enum CLOSED,OPEN
attr interpolationmode sample-hold
attr recordingmode vector
attr source gateStateChanged
attr title "gate state"
attr type enum
vector 107 simpleTsn.detCom.nwtt.tt[0].macLayer.queue.transmissionGate[4] guardBandState:vector ETV
attr enum ON,OFF
attr interpolationmode sample-hold
attr recordingmode vector
attr source guardBandStateChanged
attr title "guard band state"
attr type enum
vector 108 simpleTsn.detCom.nwtt.tt[0].macLayer.queue.transmissionGate[5] gateState:vector ETV
attr enum CLOSED,OPEN
attr interpolationmode sample-hold
attr recordingmode vector
attr source gateStateChanged
attr title "gate state"
attr type enum
vector 109 simpleTsn.detCom.nwtt.tt[0].macLayer.queue.transmissionGate[5] guardBandState:vector ETV
attr enum ON,OFF
attr interpolationmode sample-hold
attr recordingmode vector
attr source guardBandStateChanged
attr title "guard band state"
attr type enum
vector 110 simpleTsn.detCom.nwtt.tt[0].macLayer.queue.transmissionGate[6] gateState:vector ETV
attr enum CLOSED,OPEN
attr interpolationmode sample-hold
attr recordingmode vector
attr source gateStateChanged
attr title "gate state"
attr type enum
vector 111 simpleTsn.detCom.nwtt.tt[0].macLayer.queue.transmissionGate[6] guardBandState:vector ETV
attr enum ON,OFF
attr interpolationmode sample-hold
attr recordingmode vector
attr source guardBandStateChanged
attr title "guard band state"
attr type enum
vector 112 simpleTsn.detCom.nwtt.tt[0].macLayer.queue.transmissionGate[7] gateState:vector ETV
attr enum CLOSED,OPEN
attr interpolationmode sample-hold
attr recordingmode vector
attr source gateStateChanged
attr title "gate state"
attr type enum
vector 113 simpleTsn.detCom.nwtt.tt[0].macLayer.queue.transmissionGate[7] guardBandState:vector ETV
attr enum ON,OFF
attr interpolationmode sample-hold
attr recordingmode vector
attr source guardBandStateChanged
attr title "guard band state"
attr type enum
vector 114 simpleTsn.bridge1.eth[0].macLayer.queue.transmissionGate[0] gateState:vector ETV
attr enum CLOSED,OPEN
attr interpolationmode sample-hold
attr moduledisplaypath "simpleTsn.bridge1.eth[0].macLayer.queue.best effort"
attr recordingmode vector
attr source gateStateChanged
attr title "gate state"
attr type enum
vector 115 simpleTsn.bridge1.eth[0].macLayer.queue.transmissionGate[0] guardBandState:vector ETV
attr enum ON,OFF
attr interpolationmode sample-hold
attr moduledisplaypath "simpleTsn.bridge1.eth[0].macLayer.queue.best effort"
attr recordingmode vector
attr source guardBandStateChanged
attr title "guard band state"
attr type enum
vector 116 simpleTsn.bridge1.eth[0].macLayer.queue.transmissionGate[1] gateState:vector ETV
attr enum CLOSED,OPEN
attr interpolationmode sample-hold
attr moduledisplaypath simpleTsn.bridge1.eth[0].macLayer.queue.video
attr recordingmode vector
attr source gateStateChanged
attr title "gate state"
attr type enum
vector 117 simpleTsn.bridge1.eth[0].macLayer.queue.transmissionGate[1] guardBandState:vector ETV
attr enum ON,OFF
attr interpolationmode sample-hold
attr moduledisplaypath simpleTsn.bridge1.eth[0].macLayer.queue.video
attr recordingmode vector
attr source guardBandStateChanged
attr title "guard band state"
attr type enum
vector 118 simpleTsn.bridge1.eth[0].macLayer.queue.transmissionGate[2] gateState:vector ETV
attr enum CLOSED,OPEN
attr interpolationmode sample-hold
attr moduledisplaypath simpleTsn.bridge1.eth[0].macLayer.queue.control
attr recordingmode vector
attr source gateStateChanged
attr title "gate state"
attr type enum
vector 119 simpleTsn.bridge1.eth[0].macLayer.queue.transmissionGate[2] guardBandState:vector ETV
attr enum ON,OFF
attr interpolationmode sample-hold
attr moduledisplaypath simpleTsn.bridge1.eth[0].macLayer.queue.control
attr recordingmode vector
attr source guardBandStateChanged
attr title "guard band state"
attr type enum
vector 120 simpleTsn.bridge1.eth[0].macLayer.queue.transmissionGate[3] gateState:vector ETV
attr enum CLOSED,OPEN
attr interpolationmode sample-hold
attr moduledisplaypath simpleTsn.bridge1.eth[0].macLayer.queue.p3
attr recordingmode vector
attr source gateStateChanged
attr title "gate state"
attr type enum
vector 121 simpleTsn.bridge1.eth[0].macLayer.queue.transmissionGate[3] guardBandState:vector ETV
attr enum ON,OFF
attr interpolationmode sample-hold
attr moduledisplaypath simpleTsn.bridge1.eth[0].macLayer.queue.p3
attr recordingmode vector
attr source guardBandStateChanged
attr title "guard band state"
attr type enum
vector 122 simpleTsn.bridge1.eth[0].macLayer.queue.transmissionGate[4] gateState:vector ETV
attr enum CLOSED,OPEN
attr interpolationmode sample-hold
attr moduledisplaypath simpleTsn.bridge1.eth[0].macLayer.queue.p4
attr recordingmode vector
attr source gateStateChanged
attr title "gate state"
attr type enum
vector 123 simpleTsn.bridge1.eth[0].macLayer.queue.transmissionGate[4] guardBandState:vector ETV
attr enum ON,OFF
attr interpolationmode sample-hold
attr moduledisplaypath simpleTsn.bridge1.eth[0].macLayer.queue.p4
attr recordingmode vector
attr source guardBandStateChanged
attr title "guard band state"
attr type enum
vector 124 simpleTsn.bridge1.eth[0].macLayer.queue.transmissionGate[5] gateState:vector ETV
attr enum CLOSED,OPEN
attr interpolationmode sample-hold
attr moduledisplaypath simpleTsn.bridge1.eth[0].macLayer.queue.p5
attr recordingmode vector
attr source gateStateChanged
attr title "gate state"
attr type enum
vector 125 simpleTsn.bridge1.eth[0].macLayer.queue.transmissionGate[5] guardBandState:vector ETV
attr enum ON,OFF
attr interpolationmode sample-hold
attr moduledisplaypath simpleTsn.bridge1.eth[0].macLayer.queue.p5
attr recordingmode vector
attr source guardBandStateChanged
attr title "guard band state"
attr type enum
vector 126 simpleTsn.bridge1.eth[0].macLayer.queue.transmissionGate[6] gateState:vector ETV
attr enum CLOSED,OPEN
attr interpolationmode sample-hold
attr moduledisplaypath simpleTsn.bridge1.eth[0].macLayer.queue.p6
attr recordingmode vector
attr source gateStateChanged
attr title "gate state"
attr type enum
vector 127 simpleTsn.bridge1.eth[0].macLayer.queue.transmissionGate[6] guardBandState:vector ETV
attr enum ON,OFF
attr interpolationmode sample-hold
attr moduledisplaypath simpleTsn.bridge1.eth[0].macLayer.queue.p6
attr recordingmode vector
attr source guardBandStateChanged
attr title "guard band state"
attr type enum
vector 128 simpleTsn.bridge1.eth[0].macLayer.queue.transmissionGate[7] gateState:vector ETV
attr enum CLOSED,OPEN
attr interpolationmode sample-hold
attr moduledisplaypath simpleTsn.bridge1.eth[0].macLayer.queue.p7
attr recordingmode vector
attr source gateStateChanged
attr title "gate state"
attr type enum
vector 129 simpleTsn.bridge1.eth[0].macLayer.queue.transmissionGate[7] guardBandState:vector ETV
attr enum ON,OFF
attr interpolationmode sample-hold
attr moduledisplaypath simpleTsn.bridge1.eth[0].macLayer.queue.p7
attr recordingmode vector
attr source guardBandStateChanged
attr title "guard band state"
attr type enum
vector 130 simpleTsn.bridge1.eth[1].macLayer.queue.transmissionGate[0] gateState:vector ETV
attr enum CLOSED,OPEN
attr interpolationmode sample-hold
attr moduledisplaypath "simpleTsn.bridge1.eth[1].macLayer.queue.best effort"
attr recordingmode vector
attr source gateStateChanged
attr title "gate state"
attr type enum
vector 131 simpleTsn.bridge1.eth[1].macLayer.queue.transmissionGate[0] guardBandState:vector ETV
attr enum ON,OFF
attr interpolationmode sample-hold
attr moduledisplaypath "simpleTsn.bridge1.eth[1].macLayer.queue.best effort"
attr recordingmode vector
attr source guardBandStateChanged
attr title "guard band state"
attr type enum
vector 132 simpleTsn.bridge1.eth[1].macLayer.queue.transmissionGate[1] gateState:vector ETV
attr enum CLOSED,OPEN
attr interpolationmode sample-hold
attr moduledisplaypath simpleTsn.bridge1.eth[1].macLayer.queue.video
attr recordingmode vector
attr source gateStateChanged
attr title "gate state"
attr type enum
vector 133 simpleTsn.bridge1.eth[1].macLayer.queue.transmissionGate[1] guardBandState:vector ETV
attr enum ON,OFF
attr interpolationmode sample-hold
attr moduledisplaypath simpleTsn.bridge1.eth[1].macLayer.queue.video
attr recordingmode vector
attr source guardBandStateChanged
attr title "guard band state"
attr type enum
vector 134 simpleTsn.bridge1.eth[1].macLayer.queue.transmissionGate[2] gateState:vector ETV
attr enum CLOSED,OPEN
attr interpolationmode sample-hold
attr moduledisplaypath simpleTsn.bridge1.eth[1].macLayer.queue.control
attr recordingmode vector
attr source gateStateChanged
attr title "gate state"
attr type enum
vector 135 simpleTsn.bridge1.eth[1].macLayer.queue.transmissionGate[2] guardBandState:vector ETV
attr enum ON,OFF
attr interpolationmode sample-hold
attr moduledisplaypath simpleTsn.bridge1.eth[1].macLayer.queue.control
attr recordingmode vector
attr source guardBandStateChanged
attr title "guard band state"
attr type enum
vector 136 simpleTsn.bridge1.eth[1].macLayer.queue.transmissionGate[3] gateState:vector ETV
attr enum CLOSED,OPEN
attr interpolationmode sample-hold
attr moduledisplaypath simpleTsn.bridge1.eth[1].macLayer.queue.p3
attr recordingmode vector
attr source gateStateChanged
attr title "gate state"
attr type enum
vector 137 simpleTsn.bridge1.eth[1].macLayer.queue.transmissionGate[3] guardBandState:vector ETV
attr enum ON,OFF
attr interpolationmode sample-hold
attr moduledisplaypath simpleTsn.bridge1.eth[1].macLayer.queue.p3
attr recordingmode vector
attr source guardBandStateChanged
attr title "guard band state"
attr type enum
vector 138 simpleTsn.bridge1.eth[1].macLayer.queue.transmissionGate[4] gateState:vector ETV
attr enum CLOSED,OPEN
attr interpolationmode sample-hold
attr moduledisplaypath simpleTsn.bridge1.eth[1].macLayer.queue.p4
attr recordingmode vector
attr source gateStateChanged
attr title "gate state"
attr type enum
vector 139 simpleTsn.bridge1.eth[1].macLayer.queue.transmissionGate[4] guardBandState:vector ETV
attr enum ON,OFF
attr interpolationmode sample-hold
attr moduledisplaypath simpleTsn.bridge1.eth[1].macLayer.queue.p4
attr recordingmode vector
attr source guardBandStateChanged
attr title "guard band state"
attr type enum
vector 140 simpleTsn.bridge1.eth[1].macLayer.queue.transmissionGate[5] gateState:vector ETV
attr enum CLOSED,OPEN
attr interpolationmode sample-hold
attr moduledisplaypath simpleTsn.bridge1.eth[1].macLayer.queue.p5
attr recordingmode vector
attr source gateStateChanged
attr title "gate state"
attr type enum
vector 141 simpleTsn.bridge1.eth[1].macLayer.queue.transmissionGate[5] guardBandState:vector ETV
attr enum ON,OFF
attr interpolationmode sample-hold
attr moduledisplaypath simpleTsn.bridge1.eth[1].macLayer.queue.p5
attr recordingmode vector
attr source guardBandStateChanged
attr title "guard band state"
attr type enum
vector 142 simpleTsn.bridge1.eth[1].macLayer.queue.transmissionGate[6] gateState:vector ETV
attr enum CLOSED,OPEN
attr interpolationmode sample-hold
attr moduledisplaypath simpleTsn.bridge1.eth[1].macLayer.queue.p6
attr recordingmode vector
attr source gateStateChanged
attr title "gate state"
attr type enum
vector 143 simpleTsn.bridge1.eth[1].macLayer.queue.transmissionGate[6] guardBandState:vector ETV
attr enum ON,OFF
attr interpolationmode sample-hold
attr moduledisplaypath simpleTsn.bridge1.eth[1].macLayer.queue.p6
attr recordingmode vector
attr source guardBandStateChanged
attr title "guard band state"
attr type enum
vector 144 simpleTsn.bridge1.eth[1].macLayer.queue.transmissionGate[7] gateState:vector ETV
attr enum CLOSED,OPEN
attr interpolationmode sample-hold
attr moduledisplaypath simpleTsn.bridge1.eth[1].macLayer.queue.p7
attr recordingmode vector
attr source gateStateChanged
attr title "gate state"
attr type enum
vector 145 simpleTsn.bridge1.eth[1].macLayer.queue.transmissionGate[7] guardBandState:vector ETV
attr enum ON,OFF
attr interpolationmode sample-hold
attr moduledisplaypath simpleTsn.bridge1.eth[1].macLayer.queue.p7
attr recordingmode vector
attr source guardBandStateChanged
attr title "guard band state"
attr type enum
vector 146 simpleTsn.bridge1.eth[2].macLayer.queue.transmissionGate[0] gateState:vector ETV
attr enum CLOSED,OPEN
attr interpolationmode sample-hold
attr moduledisplaypath "simpleTsn.bridge1.eth[2].macLayer.queue.best effort"
attr recordingmode vector
attr source gateStateChanged
attr title "gate state"
attr type enum
vector 147 simpleTsn.bridge1.eth[2].macLayer.queue.transmissionGate[0] guardBandState:vector ETV
attr enum ON,OFF
attr interpolationmode sample-hold
attr moduledisplaypath "simpleTsn.bridge1.eth[2].macLayer.queue.best effort"
attr recordingmode vector
attr source guardBandStateChanged
attr title "guard band state"
attr type enum
vector 148 simpleTsn.bridge1.eth[2].macLayer.queue.transmissionGate[1] gateState:vector ETV
attr enum CLOSED,OPEN
attr interpolationmode sample-hold
attr moduledisplaypath simpleTsn.bridge1.eth[2].macLayer.queue.video
attr recordingmode vector
attr source gateStateChanged
attr title "gate state"
attr type enum
vector 149 simpleTsn.bridge1.eth[2].macLayer.queue.transmissionGate[1] guardBandState:vector ETV
attr enum ON,OFF
attr interpolationmode sample-hold
attr moduledisplaypath simpleTsn.bridge1.eth[2].macLayer.queue.video
attr recordingmode vector
attr source guardBandStateChanged
attr title "guard band state"
attr type enum
vector 150 simpleTsn.bridge1.eth[2].macLayer.queue.transmissionGate[2] gateState:vector ETV
attr enum CLOSED,OPEN
attr interpolationmode sample-hold
attr moduledisplaypath simpleTsn.bridge1.eth[2].macLayer.queue.control
attr recordingmode vector
attr source gateStateChanged
attr title "gate state"
attr type enum
vector 151 simpleTsn.bridge1.eth[2].macLayer.queue.transmissionGate[2] guardBandState:vector ETV
attr enum ON,OFF
attr interpolationmode sample-hold
attr moduledisplaypath simpleTsn.bridge1.eth[2].macLayer.queue.control
attr recordingmode vector
attr source guardBandStateChanged
attr title "guard band state"
attr type enum
vector 152 simpleTsn.bridge1.eth[2].macLayer.queue.transmissionGate[3] gateState:vector ETV
attr enum CLOSED,OPEN
attr interpolationmode sample-hold
attr moduledisplaypath simpleTsn.bridge1.eth[2].macLayer.queue.p3
attr recordingmode vector
attr source gateStateChanged
attr title "gate state"
attr type enum
vector 153 simpleTsn.bridge1.eth[2].macLayer.queue.transmissionGate[3] guardBandState:vector ETV
attr enum ON,OFF
attr interpolationmode sample-hold
attr moduledisplaypath simpleTsn.bridge1.eth[2].macLayer.queue.p3
attr recordingmode vector
attr source guardBandStateChanged
attr title "guard band state"
attr type enum
vector 154 simpleTsn.bridge1.eth[2].macLayer.queue.transmissionGate[4] gateState:vector ETV
attr enum CLOSED,OPEN
attr interpolationmode sample-hold
attr moduledisplaypath simpleTsn.bridge1.eth[2].macLayer.queue.p4
attr recordingmode vector
attr source gateStateChanged
attr title "gate state"
attr type enum
vector 155 simpleTsn.bridge1.eth[2].macLayer.queue.transmissionGate[4] guardBandState:vector ETV
attr enum ON,OFF
attr interpolationmode sample-hold
attr moduledisplaypath simpleTsn.bridge1.eth[2].macLayer.queue.p4
attr recordingmode vector
attr source guardBandStateChanged
attr title "guard band state"
attr type enum
vector 156 simpleTsn.bridge1.eth[2].macLayer.queue.transmissionGate[5] gateState:vector ETV
attr enum CLOSED,OPEN
attr interpolationmode sample-hold
attr moduledisplaypath simpleTsn.bridge1.eth[2].macLayer.queue.p5
attr recordingmode vector
attr source gateStateChanged
attr title "gate state"
attr type enum
vector 157 simpleTsn.bridge1.eth[2].macLayer.queue.transmissionGate[5] guardBandState:vector ETV
attr enum ON,OFF
attr interpolationmode sample-hold
attr moduledisplaypath simpleTsn.bridge1.eth[2].macLayer.queue.p5
attr recordingmode vector
attr source guardBandStateChanged
attr title "guard band state"
attr type enum
vector 158 simpleTsn.bridge1.eth[2].macLayer.queue.transmissionGate[6] gateState:vector ETV
attr enum CLOSED,OPEN
attr interpolationmode sample-hold
attr moduledisplaypath simpleTsn.bridge1.eth[2].macLayer.queue.p6
attr recordingmode vector
attr source gateStateChanged
attr title "gate state"
attr type enum
vector 159 simpleTsn.bridge1.eth[2].macLayer.queue.transmissionGate[6] guardBandState:vector ETV
attr enum ON,OFF
attr interpolationmode sample-hold
attr moduledisplaypath simpleTsn.bridge1.eth[2].macLayer.queue.p6
attr recordingmode vector
attr source guardBandStateChanged
attr title "guard band state"
attr type enum
vector 160 simpleTsn.bridge1.eth[2].macLayer.queue.transmissionGate[7] gateState:vector ETV
attr enum CLOSED,OPEN
attr interpolationmode sample-hold
attr moduledisplaypath simpleTsn.bridge1.eth[2].macLayer.queue.p7
attr recordingmode vector
attr source gateStateChanged
attr title "gate state"
attr type enum
vector 161 simpleTsn.bridge1.eth[2].macLayer.queue.transmissionGate[7] guardBandState:vector ETV
attr enum ON,OFF
attr interpolationmode sample-hold
attr moduledisplaypath simpleTsn.bridge1.eth[2].macLayer.queue.p7
attr recordingmode vector
attr source guardBandStateChanged
attr title "guard band state"
attr type enum
vector 162 simpleTsn.bridge2.eth[0].macLayer.queue.transmissionGate[0] gateState:vector ETV
attr enum CLOSED,OPEN
attr interpolationmode sample-hold
attr moduledisplaypath "simpleTsn.bridge2.eth[0].macLayer.queue.best effort"
attr recordingmode vector
attr source gateStateChanged
attr title "gate state"
attr type enum
vector 163 simpleTsn.bridge2.eth[0].macLayer.queue.transmissionGate[0] guardBandState:vector ETV
attr enum ON,OFF
attr interpolationmode sample-hold
attr moduledisplaypath "simpleTsn.bridge2.eth[0].macLayer.queue.best effort"
attr recordingmode vector
attr source guardBandStateChanged
attr title "guard band state"
attr type enum
vector 164 simpleTsn.bridge2.eth[0].macLayer.queue.transmissionGate[1] gateState:vector ETV
attr enum CLOSED,OPEN
attr interpolationmode sample-hold
attr moduledisplaypath simpleTsn.bridge2.eth[0].macLayer.queue.video
attr recordingmode vector
attr source gateStateChanged
attr title "gate state"
attr type enum
vector 165 simpleTsn.bridge2.eth[0].macLayer.queue.transmissionGate[1] guardBandState:vector ETV
attr enum ON,OFF
attr interpolationmode sample-hold
attr moduledisplaypath simpleTsn.bridge2.eth[0].macLayer.queue.video
attr recordingmode vector
attr source guardBandStateChanged
attr title "guard band state"
attr type enum
vector 166 simpleTsn.bridge2.eth[0].macLayer.queue.transmissionGate[2] gateState:vector ETV
attr enum CLOSED,OPEN
attr interpolationmode sample-hold
attr moduledisplaypath simpleTsn.bridge2.eth[0].macLayer.queue.control
attr recordingmode vector
attr source gateStateChanged
attr title "gate state"
attr type enum
vector 167 simpleTsn.bridge2.eth[0].macLayer.queue.transmissionGate[2] guardBandState:vector ETV
attr enum ON,OFF
attr interpolationmode sample-hold
attr moduledisplaypath simpleTsn.bridge2.eth[0].macLayer.queue.control
attr recordingmode vector
attr source guardBandStateChanged
attr title "guard band state"
attr type enum
vector 168 simpleTsn.bridge2.eth[0].macLayer.queue.transmissionGate[3] gateState:vector ETV
attr enum CLOSED,OPEN
attr interpolationmode sample-hold
attr moduledisplaypath simpleTsn.bridge2.eth[0].macLayer.queue.p3
attr recordingmode vector
attr source gateStateChanged
attr title "gate state"
attr type enum
vector 169 simpleTsn.bridge2.eth[0].macLayer.queue.transmissionGate[3] guardBandState:vector ETV
attr enum ON,OFF
attr interpolationmode sample-hold
attr moduledisplaypath simpleTsn.bridge2.eth[0].macLayer.queue.p3
attr recordingmode vector
attr source guardBandStateChanged
attr title "guard band state"
attr type enum
vector 170 simpleTsn.bridge2.eth[0].macLayer.queue.transmissionGate[4] gateState:vector ETV
attr enum CLOSED,OPEN
attr interpolationmode sample-hold
attr moduledisplaypath simpleTsn.bridge2.eth[0].macLayer.queue.p4
attr recordingmode vector
attr source gateStateChanged
attr title "gate state"
attr type enum
vector 171 simpleTsn.bridge2.eth[0].macLayer.queue.transmissionGate[4] guardBandState:vector ETV
attr enum ON,OFF
attr interpolationmode sample-hold
attr moduledisplaypath simpleTsn.bridge2.eth[0].macLayer.queue.p4
attr recordingmode vector
attr source guardBandStateChanged
attr title "guard band state"
attr type enum
vector 172 simpleTsn.bridge2.eth[0].macLayer.queue.transmissionGate[5] gateState:vector ETV
attr enum CLOSED,OPEN
attr interpolationmode sample-hold
attr moduledisplaypath simpleTsn.bridge2.eth[0].macLayer.queue.p5
attr recordingmode vector
attr source gateStateChanged
attr title "gate state"
attr type enum
vector 173 simpleTsn.bridge2.eth[0].macLayer.queue.transmissionGate[5] guardBandState:vector ETV
attr enum ON,OFF
attr interpolationmode sample-hold
attr moduledisplaypath simpleTsn.bridge2.eth[0].macLayer.queue.p5
attr recordingmode vector
attr source guardBandStateChanged
attr title "guard band state"
attr type enum
vector 174 simpleTsn.bridge2.eth[0].macLayer.queue.transmissionGate[6] gateState:vector ETV
attr enum CLOSED,OPEN
attr interpolationmode sample-hold
attr moduledisplaypath simpleTsn.bridge2.eth[0].macLayer.queue.p6
attr recordingmode vector
attr source gateStateChanged
attr title "gate state"
attr type enum
vector 175 simpleTsn.bridge2.eth[0].macLayer.queue.transmissionGate[6] guardBandState:vector ETV
attr enum ON,OFF
attr interpolationmode sample-hold
attr moduledisplaypath simpleTsn.bridge2.eth[0].macLayer.queue.p6
attr recordingmode vector
attr source guardBandStateChanged
attr title "guard band state"
attr type enum
vector 176 simpleTsn.bridge2.eth[0].macLayer.queue.transmissionGate[7] gateState:vector ETV
attr enum CLOSED,OPEN
attr interpolationmode sample-hold
attr moduledisplaypath simpleTsn.bridge2.eth[0].macLayer.queue.p7
attr recordingmode vector
attr source gateStateChanged
attr title "gate state"
attr type enum
vector 177 simpleTsn.bridge2.eth[0].macLayer.queue.transmissionGate[7] guardBandState:vector ETV
attr enum ON,OFF
attr interpolationmode sample-hold
attr moduledisplaypath simpleTsn.bridge2.eth[0].macLayer.queue.p7
attr recordingmode vector
attr source guardBandStateChanged
attr title "guard band state"
attr type enum
vector 178 simpleTsn.bridge2.eth[1].macLayer.queue.transmissionGate[0] gateState:vector ETV
attr enum CLOSED,OPEN
attr interpolationmode sample-hold
attr moduledisplaypath "simpleTsn.bridge2.eth[1].macLayer.queue.best effort"
attr recordingmode vector
attr source gateStateChanged
attr title "gate state"
attr type enum
vector 179 simpleTsn.bridge2.eth[1].macLayer.queue.transmissionGate[0] guardBandState:vector ETV
attr enum ON,OFF
attr interpolationmode sample-hold
attr moduledisplaypath "simpleTsn.bridge2.eth[1].macLayer.queue.best effort"
attr recordingmode vector
attr source guardBandStateChanged
attr title "guard band state"
attr type enum
vector 180 simpleTsn.bridge2.eth[1].macLayer.queue.transmissionGate[1] gateState:vector ETV
attr enum CLOSED,OPEN
attr interpolationmode sample-hold
attr moduledisplaypath simpleTsn.bridge2.eth[1].macLayer.queue.video
attr recordingmode vector
attr source gateStateChanged
attr title "gate state"
attr type enum
vector 181 simpleTsn.bridge2.eth[1].macLayer.queue.transmissionGate[1] guardBandState:vector ETV
attr enum ON,OFF
attr interpolationmode sample-hold
attr moduledisplaypath simpleTsn.bridge2.eth[1].macLayer.queue.video
attr recordingmode vector
attr source guardBandStateChanged
attr title "guard band state"
attr type enum
vector 182 simpleTsn.bridge2.eth[1].macLayer.queue.transmissionGate[2] gateState:vector ETV
attr enum CLOSED,OPEN
attr interpolationmode sample-hold
attr moduledisplaypath simpleTsn.bridge2.eth[1].macLayer.queue.control
attr recordingmode vector
attr source gateStateChanged
attr title "gate state"
attr type enum
vector 183 simpleTsn.bridge2.eth[1].macLayer.queue.transmissionGate[2] guardBandState:vector ETV
attr enum ON,OFF
attr interpolationmode sample-hold
attr moduledisplaypath simpleTsn.bridge2.eth[1].macLayer.queue.control
attr recordingmode vector
attr source guardBandStateChanged
attr title "guard band state"
attr type enum
vector 184 simpleTsn.bridge2.eth[1].macLayer.queue.transmissionGate[3] gateState:vector ETV
attr enum CLOSED,OPEN
attr interpolationmode sample-hold
attr moduledisplaypath simpleTsn.bridge2.eth[1].macLayer.queue.p3
attr recordingmode vector
attr source gateStateChanged
attr title "gate state"
attr type enum
vector 185 simpleTsn.bridge2.eth[1].macLayer.queue.transmissionGate[3] guardBandState:vector ETV
attr enum ON,OFF
attr interpolationmode sample-hold
attr moduledisplaypath simpleTsn.bridge2.eth[1].macLayer.queue.p3
attr recordingmode vector
attr source guardBandStateChanged
attr title "guard band state"
attr type enum
vector 186 simpleTsn.bridge2.eth[1].macLayer.queue.transmissionGate[4] gateState:vector ETV
attr enum CLOSED,OPEN
attr interpolationmode sample-hold
attr moduledisplaypath simpleTsn.bridge2.eth[1].macLayer.queue.p4
attr recordingmode vector
attr source gateStateChanged
attr title "gate state"
attr type enum
vector 187 simpleTsn.bridge2.eth[1].macLayer.queue.transmissionGate[4] guardBandState:vector ETV
attr enum ON,OFF
attr interpolationmode sample-hold
attr moduledisplaypath simpleTsn.bridge2.eth[1].macLayer.queue.p4
attr recordingmode vector
attr source guardBandStateChanged
attr title "guard band state"
attr type enum
vector 188 simpleTsn.bridge2.eth[1].macLayer.queue.transmissionGate[5] gateState:vector ETV
attr enum CLOSED,OPEN
attr interpolationmode sample-hold
attr moduledisplaypath simpleTsn.bridge2.eth[1].macLayer.queue.p5
attr recordingmode vector
attr source gateStateChanged
attr title "gate state"
attr type enum
vector 189 simpleTsn.bridge2.eth[1].macLayer.queue.transmissionGate[5] guardBandState:vector ETV
attr enum ON,OFF
attr interpolationmode sample-hold
attr moduledisplaypath simpleTsn.bridge2.eth[1].macLayer.queue.p5
attr recordingmode vector
attr source guardBandStateChanged
attr title "guard band state"
attr type enum
vector 190 simpleTsn.bridge2.eth[1].macLayer.queue.transmissionGate[6] gateState:vector ETV
attr enum CLOSED,OPEN
attr interpolationmode sample-hold
attr moduledisplaypath simpleTsn.bridge2.eth[1].macLayer.queue.p6
attr recordingmode vector
attr source gateStateChanged
attr title "gate state"
attr type enum
vector 191 simpleTsn.bridge2.eth[1].macLayer.queue.transmissionGate[6] guardBandState:vector ETV
attr enum ON,OFF
attr interpolationmode sample-hold
attr moduledisplaypath simpleTsn.bridge2.eth[1].macLayer.queue.p6
attr recordingmode vector
attr source guardBandStateChanged
attr title "guard band state"
attr type enum
vector 192 simpleTsn.bridge2.eth[1].macLayer.queue.transmissionGate[7] gateState:vector ETV
attr enum CLOSED,OPEN
attr interpolationmode sample-hold
attr moduledisplaypath simpleTsn.bridge2.eth[1].macLayer.queue.p7
attr recordingmode vector
attr source gateStateChanged
attr title "gate state"
attr type enum
vector 193 simpleTsn.bridge2.eth[1].macLayer.queue.transmissionGate[7] guardBandState:vector ETV
attr enum ON,OFF
attr interpolationmode sample-hold
attr moduledisplaypath simpleTsn.bridge2.eth[1].macLayer.queue.p7
attr recordingmode vector
attr source guardBandStateChanged
attr title "guard band state"
attr type enum
vector 194 simpleTsn.bridge2.eth[2].macLayer.queue.transmissionGate[0] gateState:vector ETV
attr enum CLOSED,OPEN
attr interpolationmode sample-hold
attr moduledisplaypath "simpleTsn.bridge2.eth[2].macLayer.queue.best effort"
attr recordingmode vector
attr source gateStateChanged
attr title "gate state"
attr type enum
vector 195 simpleTsn.bridge2.eth[2].macLayer.queue.transmissionGate[0] guardBandState:vector ETV
attr enum ON,OFF
attr interpolationmode sample-hold
attr moduledisplaypath "simpleTsn.bridge2.eth[2].macLayer.queue.best effort"
attr recordingmode vector
attr source guardBandStateChanged
attr title "guard band state"
attr type enum
vector 196 simpleTsn.bridge2.eth[2].macLayer.queue.transmissionGate[1] gateState:vector ETV
attr enum CLOSED,OPEN
attr interpolationmode sample-hold
attr moduledisplaypath simpleTsn.bridge2.eth[2].macLayer.queue.video
attr recordingmode vector
attr source gateStateChanged
attr title "gate state"
attr type enum
vector 197 simpleTsn.bridge2.eth[2].macLayer.queue.transmissionGate[1] guardBandState:vector ETV
attr enum ON,OFF
attr interpolationmode sample-hold
attr moduledisplaypath simpleTsn.bridge2.eth[2].macLayer.queue.video
attr recordingmode vector
attr source guardBandStateChanged
attr title "guard band state"
attr type enum
vector 198 simpleTsn.bridge2.eth[2].macLayer.queue.transmissionGate[2] gateState:vector ETV
attr enum CLOSED,OPEN
attr interpolationmode sample-hold
attr moduledisplaypath simpleTsn.bridge2.eth[2].macLayer.queue.control
attr recordingmode vector
attr source gateStateChanged
attr title "gate state"
attr type enum
vector 199 simpleTsn.bridge2.eth[2].macLayer.queue.transmissionGate[2] guardBandState:vector ETV
attr enum ON,OFF
attr interpolationmode sample-hold
attr moduledisplaypath simpleTsn.bridge2.eth[2].macLayer.queue.control
attr recordingmode vector
attr source guardBandStateChanged
attr title "guard band state"
attr type enum
vector 200 simpleTsn.bridge2.eth[2].macLayer.queue.transmissionGate[3] gateState:vector ETV
attr enum CLOSED,OPEN
attr interpolationmode sample-hold
attr moduledisplaypath simpleTsn.bridge2.eth[2].macLayer.queue.p3
attr recordingmode vector
attr source gateStateChanged
attr title "gate state"
attr type enum
vector 201 simpleTsn.bridge2.eth[2].macLayer.queue.transmissionGate[3] guardBandState:vector ETV
attr enum ON,OFF
attr interpolationmode sample-hold
attr moduledisplaypath simpleTsn.bridge2.eth[2].macLayer.queue.p3
attr recordingmode vector
attr source guardBandStateChanged
attr title "guard band state"
attr type enum
vector 202 simpleTsn.bridge2.eth[2].macLayer.queue.transmissionGate[4] gateState:vector ETV
attr enum CLOSED,OPEN
attr interpolationmode sample-hold
attr moduledisplaypath simpleTsn.bridge2.eth[2].macLayer.queue.p4
attr recordingmode vector
attr source gateStateChanged
attr title "gate state"
attr type enum
vector 203 simpleTsn.bridge2.eth[2].macLayer.queue.transmissionGate[4] guardBandState:vector ETV
attr enum ON,OFF
attr interpolationmode sample-hold
attr moduledisplaypath simpleTsn.bridge2.eth[2].macLayer.queue.p4
attr recordingmode vector
attr source guardBandStateChanged
attr title "guard band state"
attr type enum
vector 204 simpleTsn.bridge2.eth[2].macLayer.queue.transmissionGate[5] gateState:vector ETV
attr enum CLOSED,OPEN
attr interpolationmode sample-hold
attr moduledisplaypath simpleTsn.bridge2.eth[2].macLayer.queue.p5
attr recordingmode vector
attr source gateStateChanged
attr title "gate state"
attr type enum
vector 205 simpleTsn.bridge2.eth[2].macLayer.queue.transmissionGate[5] guardBandState:vector ETV
attr enum ON,OFF
attr interpolationmode sample-hold
attr moduledisplaypath simpleTsn.bridge2.eth[2].macLayer.queue.p5
attr recordingmode vector
attr source guardBandStateChanged
attr title "guard band state"
attr type enum
vector 206 simpleTsn.bridge2.eth[2].macLayer.queue.transmissionGate[6] gateState:vector ETV
attr enum CLOSED,OPEN
attr interpolationmode sample-hold
attr moduledisplaypath simpleTsn.bridge2.eth[2].macLayer.queue.p6
attr recordingmode vector
attr source gateStateChanged
attr title "gate state"
attr type enum
vector 207 simpleTsn.bridge2.eth[2].macLayer.queue.transmissionGate[6] guardBandState:vector ETV
attr enum ON,OFF
attr interpolationmode sample-hold
attr moduledisplaypath simpleTsn.bridge2.eth[2].macLayer.queue.p6
attr recordingmode vector
attr source guardBandStateChanged
attr title "guard band state"
attr type enum
vector 208 simpleTsn.bridge2.eth[2].macLayer.queue.transmissionGate[7] gateState:vector ETV
attr enum CLOSED,OPEN
attr interpolationmode sample-hold
attr moduledisplaypath simpleTsn.bridge2.eth[2].macLayer.queue.p7
attr recordingmode vector
attr source gateStateChanged
attr title "gate state"
attr type enum
vector 209 simpleTsn.bridge2.eth[2].macLayer.queue.transmissionGate[7] guardBandState:vector ETV
attr enum ON,OFF
attr interpolationmode sample-hold
attr moduledisplaypath simpleTsn.bridge2.eth[2].macLayer.queue.p7
attr recordingmode vector
attr source guardBandStateChanged
attr title "guard band state"
attr type enum
vector 210 simpleTsn.bridge3.eth[0].macLayer.queue.transmissionGate[0] gateState:vector ETV
attr enum CLOSED,OPEN
attr interpolationmode sample-hold
attr moduledisplaypath "simpleTsn.bridge3.eth[0].macLayer.queue.best effort"
attr recordingmode vector
attr source gateStateChanged
attr title "gate state"
attr type enum
vector 211 simpleTsn.bridge3.eth[0].macLayer.queue.transmissionGate[0] guardBandState:vector ETV
attr enum ON,OFF
attr interpolationmode sample-hold
attr moduledisplaypath "simpleTsn.bridge3.eth[0].macLayer.queue.best effort"
attr recordingmode vector
attr source guardBandStateChanged
attr title "guard band state"
attr type enum
vector 212 simpleTsn.bridge3.eth[0].macLayer.queue.transmissionGate[1] gateState:vector ETV
attr enum CLOSED,OPEN
attr interpolationmode sample-hold
attr moduledisplaypath simpleTsn.bridge3.eth[0].macLayer.queue.video
attr recordingmode vector
attr source gateStateChanged
attr title "gate state"
attr type enum
vector 213 simpleTsn.bridge3.eth[0].macLayer.queue.transmissionGate[1] guardBandState:vector ETV
attr enum ON,OFF
attr interpolationmode sample-hold
attr moduledisplaypath simpleTsn.bridge3.eth[0].macLayer.queue.video
attr recordingmode vector
attr source guardBandStateChanged
attr title "guard band state"
attr type enum
vector 214 simpleTsn.bridge3.eth[0].macLayer.queue.transmissionGate[2] gateState:vector ETV
attr enum CLOSED,OPEN
attr interpolationmode sample-hold
attr moduledisplaypath simpleTsn.bridge3.eth[0].macLayer.queue.control
attr recordingmode vector
attr source gateStateChanged
attr title "gate state"
attr type enum
vector 215 simpleTsn.bridge3.eth[0].macLayer.queue.transmissionGate[2] guardBandState:vector ETV
attr enum ON,OFF
attr interpolationmode sample-hold
attr moduledisplaypath simpleTsn.bridge3.eth[0].macLayer.queue.control
attr recordingmode vector
attr source guardBandStateChanged
attr title "guard band state"
attr type enum
vector 216 simpleTsn.bridge3.eth[0].macLayer.queue.transmissionGate[3] gateState:vector ETV
attr enum CLOSED,OPEN
attr interpolationmode sample-hold
attr moduledisplaypath simpleTsn.bridge3.eth[0].macLayer.queue.p3
attr recordingmode vector
attr source gateStateChanged
attr title "gate state"
attr type enum
vector 217 simpleTsn.bridge3.eth[0].macLayer.queue.transmissionGate[3] guardBandState:vector ETV
attr enum ON,OFF
attr interpolationmode sample-hold
attr moduledisplaypath simpleTsn.bridge3.eth[0].macLayer.queue.p3
attr recordingmode vector
attr source guardBandStateChanged
attr title "guard band state"
attr type enum
vector 218 simpleTsn.bridge3.eth[0].macLayer.queue.transmissionGate[4] gateState:vector ETV
attr enum CLOSED,OPEN
attr interpolationmode sample-hold
attr moduledisplaypath simpleTsn.bridge3.eth[0].macLayer.queue.p4
attr recordingmode vector
attr source gateStateChanged
attr title "gate state"
attr type enum
vector 219 simpleTsn.bridge3.eth[0].macLayer.queue.transmissionGate[4] guardBandState:vector ETV
attr enum ON,OFF
attr interpolationmode sample-hold
attr moduledisplaypath simpleTsn.bridge3.eth[0].macLayer.queue.p4
attr recordingmode vector
attr source guardBandStateChanged
attr title "guard band state"
attr type enum
vector 220 simpleTsn.bridge3.eth[0].macLayer.queue.transmissionGate[5] gateState:vector ETV
attr enum CLOSED,OPEN
attr interpolationmode sample-hold
attr moduledisplaypath simpleTsn.bridge3.eth[0].macLayer.queue.p5
attr recordingmode vector
attr source gateStateChanged
attr title "gate state"
attr type enum
vector 221 simpleTsn.bridge3.eth[0].macLayer.queue.transmissionGate[5] guardBandState:vector ETV
attr enum ON,OFF
attr interpolationmode sample-hold
attr moduledisplaypath simpleTsn.bridge3.eth[0].macLayer.queue.p5
attr recordingmode vector
attr source guardBandStateChanged
attr title "guard band state"
attr type enum
vector 222 simpleTsn.bridge3.eth[0].macLayer.queue.transmissionGate[6] gateState:vector ETV
attr enum CLOSED,OPEN
attr interpolationmode sample-hold
attr moduledisplaypath simpleTsn.bridge3.eth[0].macLayer.queue.p6
attr recordingmode vector
attr source gateStateChanged
attr title "gate state"
attr type enum
vector 223 simpleTsn.bridge3.eth[0].macLayer.queue.transmissionGate[6] guardBandState:vector ETV
attr enum ON,OFF
attr interpolationmode sample-hold
attr moduledisplaypath simpleTsn.bridge3.eth[0].macLayer.queue.p6
attr recordingmode vector
attr source guardBandStateChanged
attr title "guard band state"
attr type enum
vector 224 simpleTsn.bridge3.eth[0].macLayer.queue.transmissionGate[7] gateState:vector ETV
attr enum CLOSED,OPEN
attr interpolationmode sample-hold
attr moduledisplaypath simpleTsn.bridge3.eth[0].macLayer.queue.p7
attr recordingmode vector
attr source gateStateChanged
attr title "gate state"
attr type enum
vector 225 simpleTsn.bridge3.eth[0].macLayer.queue.transmissionGate[7] guardBandState:vector ETV
attr enum ON,OFF
attr interpolationmode sample-hold
attr moduledisplaypath simpleTsn.bridge3.eth[0].macLayer.queue.p7
attr recordingmode vector
attr source guardBandStateChanged
attr title "guard band state"
attr type enum
vector 226 simpleTsn.bridge3.eth[1].macLayer.queue.transmissionGate[0] gateState:vector ETV
attr enum CLOSED,OPEN
attr interpolationmode sample-hold
attr moduledisplaypath "simpleTsn.bridge3.eth[1].macLayer.queue.best effort"
attr recordingmode vector
attr source gateStateChanged
attr title "gate state"
attr type enum
vector 227 simpleTsn.bridge3.eth[1].macLayer.queue.transmissionGate[0] guardBandState:vector ETV
attr enum ON,OFF
attr interpolationmode sample-hold
attr moduledisplaypath "simpleTsn.bridge3.eth[1].macLayer.queue.best effort"
attr recordingmode vector
attr source guardBandStateChanged
attr title "guard band state"
attr type enum
vector 228 simpleTsn.bridge3.eth[1].macLayer.queue.transmissionGate[1] gateState:vector ETV
attr enum CLOSED,OPEN
attr interpolationmode sample-hold
attr moduledisplaypath simpleTsn.bridge3.eth[1].macLayer.queue.video
attr recordingmode vector
attr source gateStateChanged
attr title "gate state"
attr type enum
vector 229 simpleTsn.bridge3.eth[1].macLayer.queue.transmissionGate[1] guardBandState:vector ETV
attr enum ON,OFF
attr interpolationmode sample-hold
attr moduledisplaypath simpleTsn.bridge3.eth[1].macLayer.queue.video
attr recordingmode vector
attr source guardBandStateChanged
attr title "guard band state"
attr type enum
vector 230 simpleTsn.bridge3.eth[1].macLayer.queue.transmissionGate[2] gateState:vector ETV
attr enum CLOSED,OPEN
attr interpolationmode sample-hold
attr moduledisplaypath simpleTsn.bridge3.eth[1].macLayer.queue.control
attr recordingmode vector
attr source gateStateChanged
attr title "gate state"
attr type enum
vector 231 simpleTsn.bridge3.eth[1].macLayer.queue.transmissionGate[2] guardBandState:vector ETV
attr enum ON,OFF
attr interpolationmode sample-hold
attr moduledisplaypath simpleTsn.bridge3.eth[1].macLayer.queue.control
attr recordingmode vector
attr source guardBandStateChanged
attr title "guard band state"
attr type enum
vector 232 simpleTsn.bridge3.eth[1].macLayer.queue.transmissionGate[3] gateState:vector ETV
attr enum CLOSED,OPEN
attr interpolationmode sample-hold
attr moduledisplaypath simpleTsn.bridge3.eth[1].macLayer.queue.p3
attr recordingmode vector
attr source gateStateChanged
attr title "gate state"
attr type enum
vector 233 simpleTsn.bridge3.eth[1].macLayer.queue.transmissionGate[3] guardBandState:vector ETV
attr enum ON,OFF
attr interpolationmode sample-hold
attr moduledisplaypath simpleTsn.bridge3.eth[1].macLayer.queue.p3
attr recordingmode vector
attr source guardBandStateChanged
attr title "guard band state"
attr type enum
vector 234 simpleTsn.bridge3.eth[1].macLayer.queue.transmissionGate[4] gateState:vector ETV
attr enum CLOSED,OPEN
attr interpolationmode sample-hold
attr moduledisplaypath simpleTsn.bridge3.eth[1].macLayer.queue.p4
attr recordingmode vector
attr source gateStateChanged
attr title "gate state"
attr type enum
vector 235 simpleTsn.bridge3.eth[1].macLayer.queue.transmissionGate[4] guardBandState:vector ETV
attr enum ON,OFF
attr interpolationmode sample-hold
attr moduledisplaypath simpleTsn.bridge3.eth[1].macLayer.queue.p4
attr recordingmode vector
attr source guardBandStateChanged
attr title "guard band state"
attr type enum
vector 236 simpleTsn.bridge3.eth[1].macLayer.queue.transmissionGate[5] gateState:vector ETV
attr enum CLOSED,OPEN
attr interpolationmode sample-hold
attr moduledisplaypath simpleTsn.bridge3.eth[1].macLayer.queue.p5
attr recordingmode vector
attr source gateStateChanged
attr title "gate state"
attr type enum
vector 237 simpleTsn.bridge3.eth[1].macLayer.queue.transmissionGate[5] guardBandState:vector ETV
attr enum ON,OFF
attr interpolationmode sample-hold
attr moduledisplaypath simpleTsn.bridge3.eth[1].macLayer.queue.p5
attr recordingmode vector
attr source guardBandStateChanged
attr title "guard band state"
attr type enum
vector 238 simpleTsn.bridge3.eth[1].macLayer.queue.transmissionGate[6] gateState:vector ETV
attr enum CLOSED,OPEN
attr interpolationmode sample-hold
attr moduledisplaypath simpleTsn.bridge3.eth[1].macLayer.queue.p6
attr recordingmode vector
attr source gateStateChanged
attr title "gate state"
attr type enum
vector 239 simpleTsn.bridge3.eth[1].macLayer.queue.transmissionGate[6] guardBandState:vector ETV
attr enum ON,OFF
attr interpolationmode sample-hold
attr moduledisplaypath simpleTsn.bridge3.eth[1].macLayer.queue.p6
attr recordingmode vector
attr source guardBandStateChanged
attr title "guard band state"
attr type enum
vector 240 simpleTsn.bridge3.eth[1].macLayer.queue.transmissionGate[7] gateState:vector ETV
attr enum CLOSED,OPEN
attr interpolationmode sample-hold
attr moduledisplaypath simpleTsn.bridge3.eth[1].macLayer.queue.p7
attr recordingmode vector
attr source gateStateChanged
attr title "gate state"
attr type enum
vector 241 simpleTsn.bridge3.eth[1].macLayer.queue.transmissionGate[7] guardBandState:vector ETV
attr enum ON,OFF
attr interpolationmode sample-hold
attr moduledisplaypath simpleTsn.bridge3.eth[1].macLayer.queue.p7
attr recordingmode vector
attr source guardBandStateChanged
attr title "guard band state"
attr type enum
vector 242 simpleTsn.device2.eth[0].macLayer.queue.transmissionGate[0] gateState:vector ETV
attr enum CLOSED,OPEN
attr interpolationmode sample-hold
attr recordingmode vector
attr source gateStateChanged
attr title "gate state"
attr type enum
vector 243 simpleTsn.device2.eth[0].macLayer.queue.transmissionGate[0] guardBandState:vector ETV
attr enum ON,OFF
attr interpolationmode sample-hold
attr recordingmode vector
attr source guardBandStateChanged
attr title "guard band state"
attr type enum
vector 244 simpleTsn.device2.eth[0].macLayer.queue.transmissionGate[1] gateState:vector ETV
attr enum CLOSED,OPEN
attr interpolationmode sample-hold
attr recordingmode vector
attr source gateStateChanged
attr title "gate state"
attr type enum
vector 245 simpleTsn.device2.eth[0].macLayer.queue.transmissionGate[1] guardBandState:vector ETV
attr enum ON,OFF
attr interpolationmode sample-hold
attr recordingmode vector
attr source guardBandStateChanged
attr title "guard band state"
attr type enum
vector 246 simpleTsn.device2.eth[0].macLayer.queue.transmissionGate[2] gateState:vector ETV
attr enum CLOSED,OPEN
attr interpolationmode sample-hold
attr recordingmode vector
attr source gateStateChanged
attr title "gate state"
attr type enum
vector 247 simpleTsn.device2.eth[0].macLayer.queue.transmissionGate[2] guardBandState:vector ETV
attr enum ON,OFF
attr interpolationmode sample-hold
attr recordingmode vector
attr source guardBandStateChanged
attr title "guard band state"
attr type enum
vector 248 simpleTsn.device2.eth[0].macLayer.queue.transmissionGate[3] gateState:vector ETV
attr enum CLOSED,OPEN
attr interpolationmode sample-hold
attr recordingmode vector
attr source gateStateChanged
attr title "gate state"
attr type enum
vector 249 simpleTsn.device2.eth[0].macLayer.queue.transmissionGate[3] guardBandState:vector ETV
attr enum ON,OFF
attr interpolationmode sample-hold
attr recordingmode vector
attr source guardBandStateChanged
attr title "guard band state"
attr type enum
vector 250 simpleTsn.device2.eth[0].macLayer.queue.transmissionGate[4] gateState:vector ETV
attr enum CLOSED,OPEN
attr interpolationmode sample-hold
attr recordingmode vector
attr source gateStateChanged
attr title "gate state"
attr type enum
vector 251 simpleTsn.device2.eth[0].macLayer.queue.transmissionGate[4] guardBandState:vector ETV
attr enum ON,OFF
attr interpolationmode sample-hold
attr recordingmode vector
attr source guardBandStateChanged
attr title "guard band state"
attr type enum
vector 252 simpleTsn.device2.eth[0].macLayer.queue.transmissionGate[5] gateState:vector ETV
attr enum CLOSED,OPEN
attr interpolationmode sample-hold
attr recordingmode vector
attr source gateStateChanged
attr title "gate state"
attr type enum
vector 253 simpleTsn.device2.eth[0].macLayer.queue.transmissionGate[5] guardBandState:vector ETV
attr enum ON,OFF
attr interpolationmode sample-hold
attr recordingmode vector
attr source guardBandStateChanged
attr title "guard band state"
attr type enum
vector 254 simpleTsn.device2.eth[0].macLayer.queue.transmissionGate[6] gateState:vector ETV
attr enum CLOSED,OPEN
attr interpolationmode sample-hold
attr recordingmode vector
attr source gateStateChanged
attr title "gate state"
attr type enum
vector 255 simpleTsn.device2.eth[0].macLayer.queue.transmissionGate[6] guardBandState:vector ETV
attr enum ON,OFF
attr interpolationmode sample-hold
attr recordingmode vector
attr source guardBandStateChanged
attr title "guard band state"
attr type enum
vector 256 simpleTsn.device2.eth[0].macLayer.queue.transmissionGate[7] gateState:vector ETV
attr enum CLOSED,OPEN
attr interpolationmode sample-hold
attr recordingmode vector
attr source gateStateChanged
attr title "gate state"
attr type enum
vector 257 simpleTsn.device2.eth[0].macLayer.queue.transmissionGate[7] guardBandState:vector ETV
attr enum ON,OFF
attr interpolationmode sample-hold
attr recordingmode vector
attr source guardBandStateChanged
attr title "guard band state"
attr type enum
vector 258 simpleTsn.device1.ethernet.macHeaderChecker droppedDataRate:vector ETV
attr interpolationmode linear
attr recordingmode vector
attr source throughput(packetDropped)
attr title "dropped data rate"
attr unit bps
vector 259 simpleTsn.device1.ethernet.fcsChecker droppedDataRate:vector ETV
attr interpolationmode linear
attr recordingmode vector
attr source throughput(packetDropped)
attr title "dropped data rate"
attr unit bps
vector 260 simpleTsn.device1.ieee8021q.qTagHeaderChecker droppedDataRate:vector ETV
attr interpolationmode linear
attr recordingmode vector
attr source throughput(packetDropped)
attr title "dropped data rate"
attr unit bps
vector 261 simpleTsn.device1.eth[0].macLayer.queue.classifier dataRate:vector ETV
attr interpolationmode linear
attr recordingmode vector
attr source throughput(packetPushed)
attr title "data rate"
attr unit bps
vector 262 simpleTsn.device1.eth[0].macLayer.queue.queue[0] outgoingDataRate:vector ETV
attr interpolationmode linear
attr recordingmode vector
attr source throughput(packetPulled)
attr title "outgoing datarate"
attr unit bps
vector 263 simpleTsn.device1.eth[0].macLayer.queue.queue[0] incomingDataRate:vector ETV
attr interpolationmode linear
attr recordingmode vector
attr source throughput(packetPushStarted)
attr title "incoming datarate"
attr unit bps
vector 264 simpleTsn.device1.eth[0].macLayer.queue.queue[1] outgoingDataRate:vector ETV
attr interpolationmode linear
attr recordingmode vector
attr source throughput(packetPulled)
attr title "outgoing datarate"
attr unit bps
vector 265 simpleTsn.device1.eth[0].macLayer.queue.queue[1] incomingDataRate:vector ETV
attr interpolationmode linear
attr recordingmode vector
attr source throughput(packetPushStarted)
attr title "incoming datarate"
attr unit bps
vector 266 simpleTsn.device1.eth[0].macLayer.queue.queue[2] outgoingDataRate:vector ETV
attr interpolationmode linear
attr recordingmode vector
attr source throughput(packetPulled)
attr title "outgoing datarate"
attr unit bps
vector 267 simpleTsn.device1.eth[0].macLayer.queue.queue[2] incomingDataRate:vector ETV
attr interpolationmode linear
attr recordingmode vector
attr source throughput(packetPushStarted)
attr title "incoming datarate"
attr unit bps
[...]
589	31	3.9	0
589	31	4	0
590	31	0.1	0
590	31	0.2	0
590	31	0.3	0
590	31	0.4	0
590	31	0.5	0
590	31	0.6	0
590	31	0.7	0
590	31	0.8	0
590	31	0.9	0
590	31	1	0
590	31	1.1	0
590	31	1.2	0
590	31	1.3	0
590	31	1.4	0
590	31	1.5	0
590	31	1.6	0
590	31	1.7	0
590	31	1.8	0
590	31	1.9	0
590	31	2	0
590	31	2.1	0
590	31	2.2	0
590	31	2.3	0
590	31	2.4	0
590	31	2.5	0
590	31	2.6	0
590	31	2.7	0
590	31	2.8	0
590	31	2.9	0
590	31	3	0
590	31	3.1	0
590	31	3.2	0
590	31	3.3	0
590	31	3.4	0
590	31	3.5	0
590	31	3.6	0
590	31	3.7	0
590	31	3.8	0
590	31	3.9	0
590	31	4	0
591	31	0.1	0
591	31	0.2	0
591	31	0.3	0
591	31	0.4	0
591	31	0.5	0
591	31	0.6	0
591	31	0.7	0
591	31	0.8	0
591	31	0.9	0
591	31	1	0
591	31	1.1	0
591	31	1.2	0
591	31	1.3	0
591	31	1.4	0
591	31	1.5	0
591	31	1.6	0
591	31	1.7	0
591	31	1.8	0
591	31	1.9	0
591	31	2	0
591	31	2.1	0
591	31	2.2	0
591	31	2.3	0
591	31	2.4	0
591	31	2.5	0
591	31	2.6	0
591	31	2.7	0
591	31	2.8	0
591	31	2.9	0
591	31	3	0
591	31	3.1	0
591	31	3.2	0
591	31	3.3	0
591	31	3.4	0
591	31	3.5	0
591	31	3.6	0
591	31	3.7	0
591	31	3.8	0
591	31	3.9	0
591	31	4	0
592	31	0.1	0
592	31	0.2	0
592	31	0.3	0
592	31	0.4	0
592	31	0.5	0
592	31	0.6	0
592	31	0.7	0
592	31	0.8	0
592	31	0.9	0
592	31	1	0
592	31	1.1	0
592	31	1.2	0
592	31	1.3	0
592	31	1.4	0
592	31	1.5	0
592	31	1.6	0
592	31	1.7	0
592	31	1.8	0
592	31	1.9	0
592	31	2	0
592	31	2.1	0
592	31	2.2	0
592	31	2.3	0
592	31	2.4	0
592	31	2.5	0
592	31	2.6	0
592	31	2.7	0
592	31	2.8	0
592	31	2.9	0
592	31	3	0
592	31	3.1	0
592	31	3.2	0
592	31	3.3	0
592	31	3.4	0
592	31	3.5	0
592	31	3.6	0
592	31	3.7	0
592	31	3.8	0
592	31	3.9	0
592	31	4	0
593	31	0.1	0
593	31	0.2	0
593	31	0.3	0
593	31	0.4	0
593	31	0.5	0
593	31	0.6	0
593	31	0.7	0
593	31	0.8	0
593	31	0.9	0
593	31	1	0
593	31	1.1	0
593	31	1.2	0
593	31	1.3	0
593	31	1.4	0
593	31	1.5	0
593	31	1.6	0
593	31	1.7	0
593	31	1.8	0
593	31	1.9	0
593	31	2	0
593	31	2.1	0
593	31	2.2	0
593	31	2.3	0
593	31	2.4	0
593	31	2.5	0
593	31	2.6	0
593	31	2.7	0
593	31	2.8	0
593	31	2.9	0
593	31	3	0
593	31	3.1	0
593	31	3.2	0
593	31	3.3	0
593	31	3.4	0
593	31	3.5	0
593	31	3.6	0
593	31	3.7	0
593	31	3.8	0
593	31	3.9	0
593	31	4	0
594	31	0.1	0
594	31	0.2	0
594	31	0.3	0
594	31	0.4	0
594	31	0.5	0
594	31	0.6	0
594	31	0.7	0
594	31	0.8	0
594	31	0.9	0
594	31	1	0
594	31	1.1	0
594	31	1.2	0
594	31	1.3	0
594	31	1.4	0
594	31	1.5	0
594	31	1.6	0
594	31	1.7	0
594	31	1.8	0
594	31	1.9	0
594	31	2	0
594	31	2.1	0
594	31	2.2	0
594	31	2.3	0
594	31	2.4	0
594	31	2.5	0
594	31	2.6	0
594	31	2.7	0
594	31	2.8	0
594	31	2.9	0
594	31	3	0
594	31	3.1	0
594	31	3.2	0
594	31	3.3	0
594	31	3.4	0
594	31	3.5	0
594	31	3.6	0
594	31	3.7	0
594	31	3.8	0
594	31	3.9	0
594	31	4	0
595	31	0.1	0
595	31	0.2	0
595	31	0.3	0
595	31	0.4	0
595	31	0.5	0
595	31	0.6	0
595	31	0.7	0
595	31	0.8	0
595	31	0.9	0
595	31	1	0
595	31	1.1	0
595	31	1.2	0
595	31	1.3	0
595	31	1.4	0
595	31	1.5	0
595	31	1.6	0
595	31	1.7	0
595	31	1.8	0
595	31	1.9	0
595	31	2	0
595	31	2.1	0
595	31	2.2	0
595	31	2.3	0
595	31	2.4	0
595	31	2.5	0
595	31	2.6	0
595	31	2.7	0
595	31	2.8	0
595	31	2.9	0
595	31	3	0
595	31	3.1	0
595	31	3.2	0
595	31	3.3	0
595	31	3.4	0
595	31	3.5	0
595	31	3.6	0
595	31	3.7	0
595	31	3.8	0
595	31	3.9	0
595	31	4	0
596	31	0.1	0
596	31	0.2	0
596	31	0.3	0
596	31	0.4	0
596	31	0.5	0
596	31	0.6	0
596	31	0.7	0
596	31	0.8	0
596	31	0.9	0
596	31	1	0
596	31	1.1	0
596	31	1.2	0
596	31	1.3	0
596	31	1.4	0
596	31	1.5	0
596	31	1.6	0
596	31	1.7	0
596	31	1.8	0
596	31	1.9	0
596	31	2	0
596	31	2.1	0
596	31	2.2	0
596	31	2.3	0
596	31	2.4	0
596	31	2.5	0
596	31	2.6	0
596	31	2.7	0
596	31	2.8	0
596	31	2.9	0
596	31	3	0
596	31	3.1	0
596	31	3.2	0
596	31	3.3	0
596	31	3.4	0
596	31	3.5	0
596	31	3.6	0
596	31	3.7	0
596	31	3.8	0
596	31	3.9	0
596	31	4	0
597	31	0.1	0
597	31	0.2	0
597	31	0.3	0
597	31	0.4	0
597	31	0.5	0
597	31	0.6	0
597	31	0.7	0
597	31	0.8	0
597	31	0.9	0
597	31	1	0
597	31	1.1	0
597	31	1.2	0
597	31	1.3	0
597	31	1.4	0
597	31	1.5	0
597	31	1.6	0
597	31	1.7	0
597	31	1.8	0
597	31	1.9	0
597	31	2	0
597	31	2.1	0
597	31	2.2	0
597	31	2.3	0
597	31	2.4	0
597	31	2.5	0
597	31	2.6	0
597	31	2.7	0
597	31	2.8	0
597	31	2.9	0
597	31	3	0
597	31	3.1	0
597	31	3.2	0
597	31	3.3	0
597	31	3.4	0
597	31	3.5	0
597	31	3.6	0
597	31	3.7	0
597	31	3.8	0
597	31	3.9	0
597	31	4	0
598	31	0.1	0
598	31	0.2	0
598	31	0.3	0
598	31	0.4	0
598	31	0.5	0
598	31	0.6	0
598	31	0.7	0
598	31	0.8	0
598	31	0.9	0
598	31	1	0
598	31	1.1	0
598	31	1.2	0
598	31	1.3	0
598	31	1.4	0
598	31	1.5	0
598	31	1.6	0
598	31	1.7	0
598	31	1.8	0
598	31	1.9	0
598	31	2	0
598	31	2.1	0
598	31	2.2	0
598	31	2.3	0
598	31	2.4	0
598	31	2.5	0
598	31	2.6	0
598	31	2.7	0
598	31	2.8	0
598	31	2.9	0
598	31	3	0
598	31	3.1	0
598	31	3.2	0
598	31	3.3	0
598	31	3.4	0
598	31	3.5	0
598	31	3.6	0
598	31	3.7	0
598	31	3.8	0
598	31	3.9	0
598	31	4	0
599	31	0.1	0
599	31	0.2	0
599	31	0.3	0
599	31	0.4	0
599	31	0.5	0
599	31	0.6	0
599	31	0.7	0
599	31	0.8	0
599	31	0.9	0
599	31	1	0
599	31	1.1	0
599	31	1.2	0
599	31	1.3	0
599	31	1.4	0
599	31	1.5	0
599	31	1.6	0
599	31	1.7	0
599	31	1.8	0
599	31	1.9	0
599	31	2	0
599	31	2.1	0
599	31	2.2	0
599	31	2.3	0
599	31	2.4	0
599	31	2.5	0
599	31	2.6	0
599	31	2.7	0
599	31	2.8	0
599	31	2.9	0
599	31	3	0
599	31	3.1	0
599	31	3.2	0
599	31	3.3	0
599	31	3.4	0
599	31	3.5	0
599	31	3.6	0
599	31	3.7	0
599	31	3.8	0
599	31	3.9	0
599	31	4	0
600	31	0.1	0
600	31	0.2	0
600	31	0.3	0
600	31	0.4	0
600	31	0.5	0
600	31	0.6	0
600	31	0.7	0
600	31	0.8	0
600	31	0.9	0
600	31	1	0
600	31	1.1	0
600	31	1.2	0
600	31	1.3	0
600	31	1.4	0
600	31	1.5	0
600	31	1.6	0
600	31	1.7	0
600	31	1.8	0
600	31	1.9	0
600	31	2	0
600	31	2.1	0
600	31	2.2	0
600	31	2.3	0
600	31	2.4	0
600	31	2.5	0
600	31	2.6	0
600	31	2.7	0
600	31	2.8	0
600	31	2.9	0
600	31	3	0
600	31	3.1	0
600	31	3.2	0
600	31	3.3	0
600	31	3.4	0
600	31	3.5	0
600	31	3.6	0
600	31	3.7	0
600	31	3.8	0
600	31	3.9	0
600	31	4	0
601	31	0.1	0
601	31	0.2	0
601	31	0.3	0
601	31	0.4	0
601	31	0.5	0
601	31	0.6	0
601	31	0.7	0
601	31	0.8	0
601	31	0.9	0
601	31	1	0
601	31	1.1	0
601	31	1.2	0
601	31	1.3	0
601	31	1.4	0
601	31	1.5	0
601	31	1.6	0
601	31	1.7	0
601	31	1.8	0
601	31	1.9	0
601	31	2	0
601	31	2.1	0
601	31	2.2	0
601	31	2.3	0
601	31	2.4	0
601	31	2.5	0
601	31	2.6	0
601	31	2.7	0
601	31	2.8	0
601	31	2.9	0
601	31	3	0
601	31	3.1	0
601	31	3.2	0
601	31	3.3	0
601	31	3.4	0
601	31	3.5	0
601	31	3.6	0
601	31	3.7	0
601	31	3.8	0
601	31	3.9	0
601	31	4	0
602	31	0.1	0
602	31	0.2	0
602	31	0.3	0
602	31	0.4	0
602	31	0.5	0
602	31	0.6	0
602	31	0.7	0
602	31	0.8	0
602	31	0.9	0
602	31	1	0
602	31	1.1	0
602	31	1.2	0
602	31	1.3	0
602	31	1.4	0
602	31	1.5	0
602	31	1.6	0
602	31	1.7	0
602	31	1.8	0
602	31	1.9	0
602	31	2	0
602	31	2.1	0
602	31	2.2	0
602	31	2.3	0
602	31	2.4	0
602	31	2.5	0
602	31	2.6	0
602	31	2.7	0
602	31	2.8	0
602	31	2.9	0
602	31	3	0
602	31	3.1	0
602	31	3.2	0
602	31	3.3	0
602	31	3.4	0
602	31	3.5	0
602	31	3.6	0
602	31	3.7	0
602	31	3.8	0
602	31	3.9	0
602	31	4	0
603	31	0.1	0
603	31	0.2	0
603	31	0.3	0
603	31	0.4	0
603	31	0.5	0
603	31	0.6	0
603	31	0.7	0
603	31	0.8	0
603	31	0.9	0
603	31	1	0
603	31	1.1	0
603	31	1.2	0
603	31	1.3	0
603	31	1.4	0
603	31	1.5	0
603	31	1.6	0
603	31	1.7	0
603	31	1.8	0
603	31	1.9	0
603	31	2	0
603	31	2.1	0
603	31	2.2	0
603	31	2.3	0
603	31	2.4	0
603	31	2.5	0
603	31	2.6	0
603	31	2.7	0
603	31	2.8	0
603	31	2.9	0
603	31	3	0
603	31	3.1	0
603	31	3.2	0
603	31	3.3	0
603	31	3.4	0
603	31	3.5	0
603	31	3.6	0
603	31	3.7	0
603	31	3.8	0
603	31	3.9	0
603	31	4	0
604	31	0.1	0
604	31	0.2	0
604	31	0.3	0
604	31	0.4	0
604	31	0.5	0
604	31	0.6	0
604	31	0.7	0
604	31	0.8	0
604	31	0.9	0
604	31	1	0
604	31	1.1	0
604	31	1.2	0
604	31	1.3	0
604	31	1.4	0
604	31	1.5	0
604	31	1.6	0
604	31	1.7	0
604	31	1.8	0
604	31	1.9	0
604	31	2	0
604	31	2.1	0
604	31	2.2	0
604	31	2.3	0
604	31	2.4	0
604	31	2.5	0
604	31	2.6	0
604	31	2.7	0
604	31	2.8	0
604	31	2.9	0
604	31	3	0
604	31	3.1	0
604	31	3.2	0
604	31	3.3	0
604	31	3.4	0
604	31	3.5	0
604	31	3.6	0
604	31	3.7	0
604	31	3.8	0
604	31	3.9	0
604	31	4	0
605	31	0.1	0
605	31	0.2	0
605	31	0.3	0
605	31	0.4	0
605	31	0.5	0
605	31	0.6	0
605	31	0.7	0
605	31	0.8	0
605	31	0.9	0
605	31	1	0
605	31	1.1	0
605	31	1.2	0
605	31	1.3	0
605	31	1.4	0
605	31	1.5	0
605	31	1.6	0
605	31	1.7	0
605	31	1.8	0
605	31	1.9	0
605	31	2	0
605	31	2.1	0
605	31	2.2	0
605	31	2.3	0
605	31	2.4	0
605	31	2.5	0
605	31	2.6	0
605	31	2.7	0
605	31	2.8	0
605	31	2.9	0
605	31	3	0
605	31	3.1	0
605	31	3.2	0
605	31	3.3	0
605	31	3.4	0
605	31	3.5	0
605	31	3.6	0
605	31	3.7	0
605	31	3.8	0
605	31	3.9	0
605	31	4	0
606	31	0.1	0
606	31	0.2	0
606	31	0.3	0
606	31	0.4	0
606	31	0.5	0
606	31	0.6	0
606	31	0.7	0
606	31	0.8	0
606	31	0.9	0
606	31	1	0
606	31	1.1	0
606	31	1.2	0
606	31	1.3	0
606	31	1.4	0
606	31	1.5	0
606	31	1.6	0
606	31	1.7	0
606	31	1.8	0
606	31	1.9	0
606	31	2	0
606	31	2.1	0
606	31	2.2	0
606	31	2.3	0
606	31	2.4	0
606	31	2.5	0
606	31	2.6	0
606	31	2.7	0
606	31	2.8	0
606	31	2.9	0
606	31	3	0
606	31	3.1	0
606	31	3.2	0
606	31	3.3	0
606	31	3.4	0
606	31	3.5	0
606	31	3.6	0
606	31	3.7	0
606	31	3.8	0
606	31	3.9	0
606	31	4	0
607	31	0.1	0
607	31	0.2	0
607	31	0.3	0
607	31	0.4	0
607	31	0.5	0
607	31	0.6	0
607	31	0.7	0
607	31	0.8	0
607	31	0.9	0
607	31	1	0
607	31	1.1	0
607	31	1.2	0
607	31	1.3	0
607	31	1.4	0
607	31	1.5	0
607	31	1.6	0
607	31	1.7	0
607	31	1.8	0
607	31	1.9	0
607	31	2	0
607	31	2.1	0
607	31	2.2	0
607	31	2.3	0
607	31	2.4	0
607	31	2.5	0
607	31	2.6	0
607	31	2.7	0
607	31	2.8	0
607	31	2.9	0
607	31	3	0
607	31	3.1	0
607	31	3.2	0
607	31	3.3	0
607	31	3.4	0
607	31	3.5	0
607	31	3.6	0
607	31	3.7	0
607	31	3.8	0
607	31	3.9	0
607	31	4	0
608	31	0.1	0
608	31	0.2	0
608	31	0.3	0
608	31	0.4	0
608	31	0.5	0
608	31	0.6	0
608	31	0.7	0
608	31	0.8	0
608	31	0.9	0
608	31	1	0
608	31	1.1	0
608	31	1.2	0
608	31	1.3	0
608	31	1.4	0
608	31	1.5	0
608	31	1.6	0
608	31	1.7	0
608	31	1.8	0
608	31	1.9	0
608	31	2	0
608	31	2.1	0
608	31	2.2	0
608	31	2.3	0
608	31	2.4	0
608	31	2.5	0
608	31	2.6	0
608	31	2.7	0
608	31	2.8	0
608	31	2.9	0
608	31	3	0
608	31	3.1	0
608	31	3.2	0
608	31	3.3	0
608	31	3.4	0
608	31	3.5	0
608	31	3.6	0
608	31	3.7	0
608	31	3.8	0
608	31	3.9	0
608	31	4	0
609	31	0.1	0
609	31	0.2	0
609	31	0.3	0
609	31	0.4	0
609	31	0.5	0
609	31	0.6	0
609	31	0.7	0
609	31	0.8	0
609	31	0.9	0
609	31	1	0
609	31	1.1	0
609	31	1.2	0
609	31	1.3	0
609	31	1.4	0
609	31	1.5	0
609	31	1.6	0
609	31	1.7	0
609	31	1.8	0
609	31	1.9	0
609	31	2	0
609	31	2.1	0
609	31	2.2	0
609	31	2.3	0
609	31	2.4	0
609	31	2.5	0
609	31	2.6	0
609	31	2.7	0
609	31	2.8	0
609	31	2.9	0
609	31	3	0
609	31	3.1	0
609	31	3.2	0
609	31	3.3	0
609	31	3.4	0
609	31	3.5	0
609	31	3.6	0
609	31	3.7	0
609	31	3.8	0
609	31	3.9	0
609	31	4	0
610	31	0.1	0
610	31	0.2	0
610	31	0.3	0
610	31	0.4	0
610	31	0.5	0
610	31	0.6	0
610	31	0.7	0
610	31	0.8	0
610	31	0.9	0
610	31	1	0
610	31	1.1	0
610	31	1.2	0
610	31	1.3	0
610	31	1.4	0
610	31	1.5	0
610	31	1.6	0
610	31	1.7	0
610	31	1.8	0
610	31	1.9	0
610	31	2	0
610	31	2.1	0
610	31	2.2	0
610	31	2.3	0
610	31	2.4	0
610	31	2.5	0
610	31	2.6	0
610	31	2.7	0
610	31	2.8	0
610	31	2.9	0
610	31	3	0
610	31	3.1	0
610	31	3.2	0
610	31	3.3	0
610	31	3.4	0
610	31	3.5	0
610	31	3.6	0
610	31	3.7	0
610	31	3.8	0
610	31	3.9	0
610	31	4	0
611	31	0.1	0
611	31	0.2	0
611	31	0.3	0
611	31	0.4	0
611	31	0.5	0
611	31	0.6	0
611	31	0.7	0
611	31	0.8	0
611	31	0.9	0
611	31	1	0
611	31	1.1	0
611	31	1.2	0
611	31	1.3	0
611	31	1.4	0
611	31	1.5	0
611	31	1.6	0
611	31	1.7	0
611	31	1.8	0
611	31	1.9	0
611	31	2	0
611	31	2.1	0
611	31	2.2	0
611	31	2.3	0
611	31	2.4	0
611	31	2.5	0
611	31	2.6	0
611	31	2.7	0
611	31	2.8	0
611	31	2.9	0
611	31	3	0
611	31	3.1	0
611	31	3.2	0
611	31	3.3	0
611	31	3.4	0
611	31	3.5	0
611	31	3.6	0
611	31	3.7	0
611	31	3.8	0
611	31	3.9	0
611	31	4	0
612	31	0.1	0
612	31	0.2	0
612	31	0.3	0
612	31	0.4	0
612	31	0.5	0
612	31	0.6	0
612	31	0.7	0
612	31	0.8	0
612	31	0.9	0
612	31	1	0
612	31	1.1	0
612	31	1.2	0
612	31	1.3	0
612	31	1.4	0
612	31	1.5	0
612	31	1.6	0
612	31	1.7	0
612	31	1.8	0
612	31	1.9	0
612	31	2	0
612	31	2.1	0
612	31	2.2	0
612	31	2.3	0
612	31	2.4	0
612	31	2.5	0
612	31	2.6	0
612	31	2.7	0
612	31	2.8	0
612	31	2.9	0
612	31	3	0
612	31	3.1	0
612	31	3.2	0
612	31	3.3	0
612	31	3.4	0
612	31	3.5	0
612	31	3.6	0
612	31	3.7	0
612	31	3.8	0
612	31	3.9	0
612	31	4	0
613	31	0.1	0
613	31	0.2	0
613	31	0.3	0
613	31	0.4	0
613	31	0.5	0
613	31	0.6	0
613	31	0.7	0
613	31	0.8	0
613	31	0.9	0
613	31	1	0
613	31	1.1	0
613	31	1.2	0
613	31	1.3	0
613	31	1.4	0
613	31	1.5	0
613	31	1.6	0
613	31	1.7	0
613	31	1.8	0
613	31	1.9	0
613	31	2	0
613	31	2.1	0
613	31	2.2	0
613	31	2.3	0
613	31	2.4	0
613	31	2.5	0
613	31	2.6	0
613	31	2.7	0
613	31	2.8	0
613	31	2.9	0
613	31	3	0
613	31	3.1	0
613	31	3.2	0
613	31	3.3	0
613	31	3.4	0
613	31	3.5	0
613	31	3.6	0
613	31	3.7	0
613	31	3.8	0
613	31	3.9	0
613	31	4	0
614	31	0.1	0
614	31	0.2	0
614	31	0.3	0
614	31	0.4	0
614	31	0.5	0
614	31	0.6	0
614	31	0.7	0
614	31	0.8	0
614	31	0.9	0
614	31	1	0
614	31	1.1	0
614	31	1.2	0
614	31	1.3	0
614	31	1.4	0
614	31	1.5	0
614	31	1.6	0
614	31	1.7	0
614	31	1.8	0
614	31	1.9	0
614	31	2	0
614	31	2.1	0
614	31	2.2	0
614	31	2.3	0
614	31	2.4	0
614	31	2.5	0
614	31	2.6	0
614	31	2.7	0
614	31	2.8	0
614	31	2.9	0
614	31	3	0
614	31	3.1	0
614	31	3.2	0
614	31	3.3	0
614	31	3.4	0
614	31	3.5	0
614	31	3.6	0
614	31	3.7	0
614	31	3.8	0
614	31	3.9	0
614	31	4	0
615	31	0.1	0
615	31	0.2	0
615	31	0.3	0
615	31	0.4	0
615	31	0.5	0
615	31	0.6	0
615	31	0.7	0
615	31	0.8	0
615	31	0.9	0
615	31	1	0
615	31	1.1	0
615	31	1.2	0
615	31	1.3	0
615	31	1.4	0
615	31	1.5	0
615	31	1.6	0
615	31	1.7	0
615	31	1.8	0
615	31	1.9	0
615	31	2	0
615	31	2.1	0
615	31	2.2	0
615	31	2.3	0
615	31	2.4	0
615	31	2.5	0
615	31	2.6	0
615	31	2.7	0
615	31	2.8	0
615	31	2.9	0
615	31	3	0
615	31	3.1	0
615	31	3.2	0
615	31	3.3	0
615	31	3.4	0
615	31	3.5	0
615	31	3.6	0
615	31	3.7	0
615	31	3.8	0
615	31	3.9	0
615	31	4	0
616	31	0.1	0
616	31	0.2	0
616	31	0.3	0
616	31	0.4	0
616	31	0.5	0
616	31	0.6	0
616	31	0.7	0
616	31	0.8	0
616	31	0.9	0
616	31	1	0
616	31	1.1	0
616	31	1.2	0
616	31	1.3	0
616	31	1.4	0
616	31	1.5	0
616	31	1.6	0
616	31	1.7	0
616	31	1.8	0
616	31	1.9	0
616	31	2	0
616	31	2.1	0
616	31	2.2	0
616	31	2.3	0
616	31	2.4	0
616	31	2.5	0
616	31	2.6	0
616	31	2.7	0
616	31	2.8	0
616	31	2.9	0
616	31	3	0
616	31	3.1	0
616	31	3.2	0
616	31	3.3	0
616	31	3.4	0
616	31	3.5	0
616	31	3.6	0
616	31	3.7	0
616	31	3.8	0
616	31	3.9	0
616	31	4	0
617	31	0.1	0
617	31	0.2	0
617	31	0.3	0
617	31	0.4	0
617	31	0.5	0
617	31	0.6	0
617	31	0.7	0
617	31	0.8	0
617	31	0.9	0
617	31	1	0
617	31	1.1	0
617	31	1.2	0
617	31	1.3	0
617	31	1.4	0
617	31	1.5	0
617	31	1.6	0
617	31	1.7	0
617	31	1.8	0
617	31	1.9	0
617	31	2	0
617	31	2.1	0
617	31	2.2	0
617	31	2.3	0
617	31	2.4	0
617	31	2.5	0
617	31	2.6	0
617	31	2.7	0
617	31	2.8	0
617	31	2.9	0
617	31	3	0
617	31	3.1	0
617	31	3.2	0
617	31	3.3	0
617	31	3.4	0
617	31	3.5	0
617	31	3.6	0
617	31	3.7	0
617	31	3.8	0
617	31	3.9	0
617	31	4	0
618	31	0.1	0
618	31	0.2	0
618	31	0.3	0
618	31	0.4	0
618	31	0.5	0
618	31	0.6	0
618	31	0.7	0
618	31	0.8	0
618	31	0.9	0
618	31	1	0
618	31	1.1	0
618	31	1.2	0
618	31	1.3	0
618	31	1.4	0
618	31	1.5	0
618	31	1.6	0
618	31	1.7	0
618	31	1.8	0
618	31	1.9	0
618	31	2	0
618	31	2.1	0
618	31	2.2	0
618	31	2.3	0
618	31	2.4	0
618	31	2.5	0
618	31	2.6	0
618	31	2.7	0
618	31	2.8	0
618	31	2.9	0
618	31	3	0
618	31	3.1	0
618	31	3.2	0
618	31	3.3	0
618	31	3.4	0
618	31	3.5	0
618	31	3.6	0
618	31	3.7	0
618	31	3.8	0
618	31	3.9	0
618	31	4	0
619	31	0.1	0
619	31	0.2	0
619	31	0.3	0
619	31	0.4	0
619	31	0.5	0
619	31	0.6	0
619	31	0.7	0
619	31	0.8	0
619	31	0.9	0
619	31	1	0
619	31	1.1	0
619	31	1.2	0
619	31	1.3	0
619	31	1.4	0
619	31	1.5	0
619	31	1.6	0
619	31	1.7	0
619	31	1.8	0
619	31	1.9	0
619	31	2	0
619	31	2.1	0
619	31	2.2	0
619	31	2.3	0
619	31	2.4	0
619	31	2.5	0
619	31	2.6	0
619	31	2.7	0
619	31	2.8	0
619	31	2.9	0
619	31	3	0
619	31	3.1	0
619	31	3.2	0
619	31	3.3	0
619	31	3.4	0
619	31	3.5	0
619	31	3.6	0
619	31	3.7	0
619	31	3.8	0
619	31	3.9	0
619	31	4	0
620	31	0.1	0
620	31	0.2	0
620	31	0.3	0
620	31	0.4	0
620	31	0.5	0
620	31	0.6	0
620	31	0.7	0
620	31	0.8	0
620	31	0.9	0
620	31	1	0
620	31	1.1	0
620	31	1.2	0
620	31	1.3	0
620	31	1.4	0
620	31	1.5	0
620	31	1.6	0
620	31	1.7	0
620	31	1.8	0
620	31	1.9	0
620	31	2	0
620	31	2.1	0
620	31	2.2	0
620	31	2.3	0
620	31	2.4	0
620	31	2.5	0
620	31	2.6	0
620	31	2.7	0
620	31	2.8	0
620	31	2.9	0
620	31	3	0
620	31	3.1	0
620	31	3.2	0
620	31	3.3	0
620	31	3.4	0
620	31	3.5	0
620	31	3.6	0
620	31	3.7	0
620	31	3.8	0
620	31	3.9	0
620	31	4	0
621	31	0.1	0
621	31	0.2	0
621	31	0.3	0
621	31	0.4	0
621	31	0.5	0
621	31	0.6	0
621	31	0.7	0
621	31	0.8	0
621	31	0.9	0
621	31	1	0
621	31	1.1	0
621	31	1.2	0
621	31	1.3	0
621	31	1.4	0
621	31	1.5	0
621	31	1.6	0
621	31	1.7	0
621	31	1.8	0
621	31	1.9	0
621	31	2	0
621	31	2.1	0
621	31	2.2	0
621	31	2.3	0
621	31	2.4	0
621	31	2.5	0
621	31	2.6	0
621	31	2.7	0
621	31	2.8	0
621	31	2.9	0
621	31	3	0
621	31	3.1	0
621	31	3.2	0
621	31	3.3	0
621	31	3.4	0
621	31	3.5	0
621	31	3.6	0
621	31	3.7	0
621	31	3.8	0
621	31	3.9	0
621	31	4	0
622	31	0.1	0
622	31	0.2	0
622	31	0.3	0
622	31	0.4	0
622	31	0.5	0
622	31	0.6	0
622	31	0.7	0
622	31	0.8	0
622	31	0.9	0
622	31	1	0
622	31	1.1	0
622	31	1.2	0
622	31	1.3	0
622	31	1.4	0
622	31	1.5	0
622	31	1.6	0
622	31	1.7	0
622	31	1.8	0
622	31	1.9	0
622	31	2	0
622	31	2.1	0
622	31	2.2	0
622	31	2.3	0
622	31	2.4	0
622	31	2.5	0
622	31	2.6	0
622	31	2.7	0
622	31	2.8	0
622	31	2.9	0
622	31	3	0
622	31	3.1	0
622	31	3.2	0
622	31	3.3	0
622	31	3.4	0
622	31	3.5	0
622	31	3.6	0
622	31	3.7	0
622	31	3.8	0
622	31	3.9	0
622	31	4	0
623	31	0.1	0
623	31	0.2	0
623	31	0.3	0
623	31	0.4	0
623	31	0.5	0
623	31	0.6	0
623	31	0.7	0
623	31	0.8	0
623	31	0.9	0
623	31	1	0
623	31	1.1	0
623	31	1.2	0
623	31	1.3	0
623	31	1.4	0
623	31	1.5	0
623	31	1.6	0
623	31	1.7	0
623	31	1.8	0
623	31	1.9	0
623	31	2	0
623	31	2.1	0
623	31	2.2	0
623	31	2.3	0
623	31	2.4	0
623	31	2.5	0
623	31	2.6	0
623	31	2.7	0
623	31	2.8	0
623	31	2.9	0
623	31	3	0
623	31	3.1	0
623	31	3.2	0
623	31	3.3	0
623	31	3.4	0
623	31	3.5	0
623	31	3.6	0
623	31	3.7	0
623	31	3.8	0
623	31	3.9	0
623	31	4	0
624	31	0.1	0
624	31	0.2	0
624	31	0.3	0
624	31	0.4	0
624	31	0.5	0
624	31	0.6	0
624	31	0.7	0
624	31	0.8	0
624	31	0.9	0
624	31	1	0
624	31	1.1	0
624	31	1.2	0
624	31	1.3	0
624	31	1.4	0
624	31	1.5	0
624	31	1.6	0
624	31	1.7	0
624	31	1.8	0
624	31	1.9	0
624	31	2	0
624	31	2.1	0
624	31	2.2	0
624	31	2.3	0
624	31	2.4	0
624	31	2.5	0
624	31	2.6	0
624	31	2.7	0
624	31	2.8	0
624	31	2.9	0
624	31	3	0
624	31	3.1	0
624	31	3.2	0
624	31	3.3	0
624	31	3.4	0
624	31	3.5	0
624	31	3.6	0
624	31	3.7	0
624	31	3.8	0
624	31	3.9	0
624	31	4	0
625	31	0.1	0
625	31	0.2	0
625	31	0.3	0
625	31	0.4	0
625	31	0.5	0
625	31	0.6	0
625	31	0.7	0
625	31	0.8	0
625	31	0.9	0
625	31	1	0
625	31	1.1	0
625	31	1.2	0
625	31	1.3	0
625	31	1.4	0
625	31	1.5	0
625	31	1.6	0
625	31	1.7	0
625	31	1.8	0
625	31	1.9	0
625	31	2	0
625	31	2.1	0
625	31	2.2	0
625	31	2.3	0
625	31	2.4	0
625	31	2.5	0
625	31	2.6	0
625	31	2.7	0
625	31	2.8	0
625	31	2.9	0
625	31	3	0
625	31	3.1	0
625	31	3.2	0
625	31	3.3	0
625	31	3.4	0
625	31	3.5	0
625	31	3.6	0
625	31	3.7	0
625	31	3.8	0
625	31	3.9	0
625	31	4	0
626	31	0.1	0
626	31	0.2	0
626	31	0.3	0
626	31	0.4	0
626	31	0.5	0
626	31	0.6	0
626	31	0.7	0
626	31	0.8	0
626	31	0.9	0
626	31	1	0
626	31	1.1	0
626	31	1.2	0
626	31	1.3	0
626	31	1.4	0
626	31	1.5	0
626	31	1.6	0
626	31	1.7	0
626	31	1.8	0
626	31	1.9	0
626	31	2	0
626	31	2.1	0
626	31	2.2	0
626	31	2.3	0
626	31	2.4	0
626	31	2.5	0
626	31	2.6	0
626	31	2.7	0
626	31	2.8	0
626	31	2.9	0
626	31	3	0
626	31	3.1	0
626	31	3.2	0
626	31	3.3	0
626	31	3.4	0
626	31	3.5	0
626	31	3.6	0
626	31	3.7	0
626	31	3.8	0
626	31	3.9	0
626	31	4	0
627	31	0.1	0
627	31	0.2	0
627	31	0.3	0
627	31	0.4	0
627	31	0.5	0
627	31	0.6	0
627	31	0.7	0
627	31	0.8	0
627	31	0.9	0
627	31	1	0
627	31	1.1	0
627	31	1.2	0
627	31	1.3	0
627	31	1.4	0
627	31	1.5	0
627	31	1.6	0
627	31	1.7	0
627	31	1.8	0
627	31	1.9	0
627	31	2	0
627	31	2.1	0
627	31	2.2	0
627	31	2.3	0
627	31	2.4	0
627	31	2.5	0
627	31	2.6	0
627	31	2.7	0
627	31	2.8	0
627	31	2.9	0
627	31	3	0
627	31	3.1	0
627	31	3.2	0
627	31	3.3	0
627	31	3.4	0
627	31	3.5	0
627	31	3.6	0
627	31	3.7	0
627	31	3.8	0
627	31	3.9	0
627	31	4	0
628	31	0.1	0
628	31	0.2	0
628	31	0.3	0
628	31	0.4	0
628	31	0.5	0
628	31	0.6	0
628	31	0.7	0
628	31	0.8	0
628	31	0.9	0
628	31	1	0
628	31	1.1	0
628	31	1.2	0
628	31	1.3	0
628	31	1.4	0
628	31	1.5	0
628	31	1.6	0
628	31	1.7	0
628	31	1.8	0
628	31	1.9	0
628	31	2	0
628	31	2.1	0
628	31	2.2	0
628	31	2.3	0
628	31	2.4	0
628	31	2.5	0
628	31	2.6	0
628	31	2.7	0
628	31	2.8	0
628	31	2.9	0
628	31	3	0
628	31	3.1	0
628	31	3.2	0
628	31	3.3	0
628	31	3.4	0
628	31	3.5	0
628	31	3.6	0
628	31	3.7	0
628	31	3.8	0
628	31	3.9	0
628	31	4	0

