file 711708 1747917140                                          
version 3
run General-0-20250522-12:32:16-4434
attr configname General
attr datetime 20250522-12:32:16
attr datetimef 20250522-123216
attr experiment General
attr inifile omnetpp.ini
attr iterationvars ""
attr iterationvarsd ""
attr iterationvarsf ""
attr measurement ""
attr network simpleTsn
attr processid 4434
attr repetition 0
attr replication #0
attr resultdir results
attr runnumber 0
attr seedset 0
config image-path ../../../inet/images
config sim-time-limit 4s
config description "General configuration"
config network simpleTsn
config **.displayGateSchedules false
config **.gateScheduleVisualizer.height 14
config **.gateScheduleVisualizer.placementHint "\"bottom\""
config *.scenarioManager.script "xmldoc(\"scenario.xml\")"
config *.histogramContainer.histograms "{Uplink: \"../../../deterministic6g_data/PD-Wireless-5G-1/s1-UL_wall.xml\", Downlink: \"../../../deterministic6g_data/PD-Wireless-5G-1/s10-DL_wall.xml\"}"
config *.detCom.delayConfig "xmldoc(\"delays_example.xml\")"
config *.device1.numApps 3
config *.device1.app[0].typename SimpleUdpSourceApp
config *.device1.app[0].display-name stream1
config *.device1.app[0].streamId "\"1\""
config *.device1.app[0].max_latency 100.0
config *.device1.app[0].priority 0
config *.device1.app[0].gamma 0
config *.device1.app[0].max_jitter 10
config *.device1.app[0].io.destAddress "\"device2\""
config *.device1.app[0].io.destPort 1001
config *.device1.app[0].source.packetLength "1000B - 54B"
config *.device1.app[0].source.productionInterval 200ms
config *.device1.app[0].source.initialProductionOffset 1s
config *.device1.app[1].typename SimpleUdpSinkApp
config *.device1.app[1].io.localPort 1002
config *.device1.app[2].typename SimpleUdpSourceApp
config *.device1.app[2].display-name stream3
config *.device1.app[2].streamId "\"3\""
config *.device1.app[2].max_latency 100.0
config *.device1.app[2].priority 0
config *.device1.app[2].gamma 0
config *.device1.app[2].max_jitter 10
config *.device1.app[2].io.destAddress "\"device2\""
config *.device1.app[2].io.destPort 1003
config *.device1.app[2].source.packetLength "1000B - 54B"
config *.device1.app[2].source.productionInterval 50ms
config *.device1.app[2].source.initialProductionOffset 20s
config *.device2.numApps 3
config *.device2.app[0].typename SimpleUdpSinkApp
config *.device2.app[0].io.localPort 1001
config *.device2.app[1].typename SimpleUdpSourceApp
config *.device2.app[1].display-name stream2
config *.device2.app[1].streamId "\"2\""
config *.device2.app[1].max_latency 100.0
config *.device2.app[1].priority 0
config *.device2.app[1].gamma 0
config *.device2.app[1].max_jitter 10
config *.device2.app[1].io.destAddress "\"device1\""
config *.device2.app[1].io.destPort 1002
config *.device2.app[1].source.packetLength "1000B - 54B"
config *.device2.app[1].source.productionInterval 100ms
config *.device2.app[1].source.initialProductionOffset 30s
config *.device2.app[2].typename SimpleUdpSinkApp
config *.device2.app[2].io.localPort 1003
config *.device1.app[0].source.streamingEnabled false
config *.device1.app[2].source.streamingEnabled false
config *.device2.app[1].source.streamingEnabled false
config **.streamIdentifier.identifier.mapping "[{stream: \"stream1\", packetFilter: expr(udp.destPort == 1001)}, \n\t\t\t\t\t\t\t\t\t\t  {stream: \"stream2\", packetFilter: expr(udp.destPort == 1002)},\n\t\t\t\t\t\t\t\t\t\t  {stream: \"stream3\", packetFilter: expr(udp.destPort == 1003)}]"
config **.streamCoder.*.mapping "[{stream: \"stream1\", pcp: 4, vlan: 1},\n\t\t\t\t\t\t\t{stream: \"stream2\", pcp: 4, vlan: 5},\n\t\t\t\t\t\t\t{stream: \"stream3\", pcp: 4, vlan: 5}]"
config *.bridge*.bridging.directionReverser.reverser.excludeEncapsulationProtocols "[\"ieee8021qctag\"]"
config *.bridge*.ieee8021q.qTagHeaderChecker.vlanIdFilter [1,5]
config *.bridge*.eth[*].macLayer.queue.*[0].display-name "best effort"
config *.bridge*.eth[*].macLayer.queue.*[1].display-name video
config *.bridge*.eth[*].macLayer.queue.*[2].display-name control
config *.bridge*.eth[*].macLayer.queue.*[3].display-name p3
config *.bridge*.eth[*].macLayer.queue.*[4].display-name p4
config *.bridge*.eth[*].macLayer.queue.*[5].display-name p5
config *.bridge*.eth[*].macLayer.queue.*[6].display-name p6
config *.bridge*.eth[*].macLayer.queue.*[7].display-name p7
config *.macForwardingTableConfigurator.typename ""
config **.bridge1.macTable.forwardingTable "[{address: \"device2\", vlan: 1, interface: \"eth2\"},{address: \"device1\", vlan: 5, interface: \"eth0\"},{address: \"device2\", vlan: 5, interface: \"eth1\"}]"
config **.bridge2.macTable.forwardingTable "[{address: \"device2\", vlan: 1, interface: \"eth1\"},{address: \"device1\", vlan: 5, interface: \"eth0\"},{address: \"device2\", vlan: 5, interface: \"eth1\"}]"
config **.bridge3.macTable.forwardingTable "[{address: \"device2\", vlan: 1, interface: \"eth1\"}]"
config *.tsnController.gateScheduleConfigurator.typename wTSNGateScheduleConfigurator
config *.tsnController.gateScheduleConfigurator.gateCycleDuration 1ms
config *.tsnController.gateScheduleConfigurator.configuration "[{pcp: 0, gateIndex:2, application: \"app[0]\", source: \"device1\", destination: \"device2\", packetLength: 1000B + 58B, packetInterval: 500us, maxLatency: 500us}]"

vector 0 simpleTsn.bridge1.eth[0].phyLayer.interFrameGapInserter interpacketGap:vector ETV
attr interpolationmode sample-hold
attr recordingmode vector
attr source "count(interpacketGapStarted) - count(interpacketGapEnded)"
attr title "interpacket gap state"
attr type int
vector 1 simpleTsn.bridge1.eth[0].phyLayer.transmitter transmitting:vector ETV
attr interpolationmode sample-hold
attr recordingmode vector
attr source "count(transmissionStarted) - count(transmissionEnded)"
attr title "transmitting state"
attr type int
vector 2 simpleTsn.bridge1.eth[1].phyLayer.interFrameGapInserter interpacketGap:vector ETV
attr interpolationmode sample-hold
attr recordingmode vector
attr source "count(interpacketGapStarted) - count(interpacketGapEnded)"
attr title "interpacket gap state"
attr type int
vector 3 simpleTsn.bridge1.eth[1].phyLayer.transmitter transmitting:vector ETV
attr interpolationmode sample-hold
attr recordingmode vector
attr source "count(transmissionStarted) - count(transmissionEnded)"
attr title "transmitting state"
attr type int
vector 4 simpleTsn.bridge1.eth[2].phyLayer.interFrameGapInserter interpacketGap:vector ETV
attr interpolationmode sample-hold
attr recordingmode vector
attr source "count(interpacketGapStarted) - count(interpacketGapEnded)"
attr title "interpacket gap state"
attr type int
vector 5 simpleTsn.bridge1.eth[2].phyLayer.transmitter transmitting:vector ETV
attr interpolationmode sample-hold
attr recordingmode vector
attr source "count(transmissionStarted) - count(transmissionEnded)"
attr title "transmitting state"
attr type int
vector 6 simpleTsn.bridge2.eth[0].phyLayer.interFrameGapInserter interpacketGap:vector ETV
attr interpolationmode sample-hold
attr recordingmode vector
attr source "count(interpacketGapStarted) - count(interpacketGapEnded)"
attr title "interpacket gap state"
attr type int
vector 7 simpleTsn.bridge2.eth[0].phyLayer.transmitter transmitting:vector ETV
attr interpolationmode sample-hold
attr recordingmode vector
attr source "count(transmissionStarted) - count(transmissionEnded)"
attr title "transmitting state"
attr type int
vector 8 simpleTsn.bridge2.eth[1].phyLayer.interFrameGapInserter interpacketGap:vector ETV
attr interpolationmode sample-hold
attr recordingmode vector
attr source "count(interpacketGapStarted) - count(interpacketGapEnded)"
attr title "interpacket gap state"
attr type int
vector 9 simpleTsn.bridge2.eth[1].phyLayer.transmitter transmitting:vector ETV
attr interpolationmode sample-hold
attr recordingmode vector
attr source "count(transmissionStarted) - count(transmissionEnded)"
attr title "transmitting state"
attr type int
vector 10 simpleTsn.bridge2.eth[2].phyLayer.interFrameGapInserter interpacketGap:vector ETV
attr interpolationmode sample-hold
attr recordingmode vector
attr source "count(interpacketGapStarted) - count(interpacketGapEnded)"
attr title "interpacket gap state"
attr type int
vector 11 simpleTsn.bridge2.eth[2].phyLayer.transmitter transmitting:vector ETV
attr interpolationmode sample-hold
attr recordingmode vector
attr source "count(transmissionStarted) - count(transmissionEnded)"
attr title "transmitting state"
attr type int
vector 12 simpleTsn.bridge3.eth[0].phyLayer.interFrameGapInserter interpacketGap:vector ETV
attr interpolationmode sample-hold
attr recordingmode vector
attr source "count(interpacketGapStarted) - count(interpacketGapEnded)"
attr title "interpacket gap state"
attr type int
vector 13 simpleTsn.bridge3.eth[0].phyLayer.transmitter transmitting:vector ETV
attr interpolationmode sample-hold
attr recordingmode vector
attr source "count(transmissionStarted) - count(transmissionEnded)"
attr title "transmitting state"
attr type int
vector 14 simpleTsn.bridge3.eth[1].phyLayer.interFrameGapInserter interpacketGap:vector ETV
attr interpolationmode sample-hold
attr recordingmode vector
attr source "count(interpacketGapStarted) - count(interpacketGapEnded)"
attr title "interpacket gap state"
attr type int
vector 15 simpleTsn.bridge3.eth[1].phyLayer.transmitter transmitting:vector ETV
attr interpolationmode sample-hold
attr recordingmode vector
attr source "count(transmissionStarted) - count(transmissionEnded)"
attr title "transmitting state"
attr type int
vector 16 simpleTsn.device1.eth[0].phyLayer.interFrameGapInserter interpacketGap:vector ETV
attr interpolationmode sample-hold
attr recordingmode vector
attr source "count(interpacketGapStarted) - count(interpacketGapEnded)"
attr title "interpacket gap state"
attr type int
vector 17 simpleTsn.device1.eth[0].phyLayer.transmitter transmitting:vector ETV
attr interpolationmode sample-hold
attr recordingmode vector
attr source "count(transmissionStarted) - count(transmissionEnded)"
attr title "transmitting state"
attr type int
vector 18 simpleTsn.device1.udp passedUpPk:vector(count) ETV
attr interpolationmode none
attr recordingmode vector(count)
attr source packetSentToUpper
attr title "packets passed up, count"
vector 19 simpleTsn.device1.udp droppedPkWrongPort:vector(count) ETV
attr interpolationmode none
attr recordingmode vector(count)
attr source packetDropReasonIsNoPortFound(packetDropped)
attr title "packets dropped (wrong port), count"
vector 20 simpleTsn.device1.udp droppedPkBadChecksum:vector(count) ETV
attr interpolationmode none
attr recordingmode vector(count)
attr source packetDropReasonIsIncorrectlyReceived(packetDropped)
attr title "packets dropped (checksum error), count"
vector 21 simpleTsn.device2.eth[0].phyLayer.interFrameGapInserter interpacketGap:vector ETV
attr interpolationmode sample-hold
attr recordingmode vector
attr source "count(interpacketGapStarted) - count(interpacketGapEnded)"
attr title "interpacket gap state"
attr type int
vector 22 simpleTsn.device2.eth[0].phyLayer.transmitter transmitting:vector ETV
attr interpolationmode sample-hold
attr recordingmode vector
attr source "count(transmissionStarted) - count(transmissionEnded)"
attr title "transmitting state"
attr type int
vector 23 simpleTsn.device2.udp passedUpPk:vector(count) ETV
attr interpolationmode none
attr recordingmode vector(count)
attr source packetSentToUpper
attr title "packets passed up, count"
vector 24 simpleTsn.device2.udp droppedPkWrongPort:vector(count) ETV
attr interpolationmode none
attr recordingmode vector(count)
attr source packetDropReasonIsNoPortFound(packetDropped)
attr title "packets dropped (wrong port), count"
vector 25 simpleTsn.device2.udp droppedPkBadChecksum:vector(count) ETV
attr interpolationmode none
attr recordingmode vector(count)
attr source packetDropReasonIsIncorrectlyReceived(packetDropped)
attr title "packets dropped (checksum error), count"
vector 26 simpleTsn.detCom.dstt[0].eth[0].phyLayer.interFrameGapInserter interpacketGap:vector ETV
attr interpolationmode sample-hold
attr recordingmode vector
attr source "count(interpacketGapStarted) - count(interpacketGapEnded)"
attr title "interpacket gap state"
attr type int
vector 27 simpleTsn.detCom.dstt[0].eth[0].phyLayer.transmitter transmitting:vector ETV
attr interpolationmode sample-hold
attr recordingmode vector
attr source "count(transmissionStarted) - count(transmissionEnded)"
attr title "transmitting state"
attr type int
vector 28 simpleTsn.detCom.dstt[0].tt[0].phyLayer.interFrameGapInserter interpacketGap:vector ETV
attr interpolationmode sample-hold
attr recordingmode vector
attr source "count(interpacketGapStarted) - count(interpacketGapEnded)"
attr title "interpacket gap state"
attr type int
vector 29 simpleTsn.detCom.dstt[0].tt[0].phyLayer.transmitter transmitting:vector ETV
attr interpolationmode sample-hold
attr recordingmode vector
attr source "count(transmissionStarted) - count(transmissionEnded)"
attr title "transmitting state"
attr type int
vector 30 simpleTsn.detCom.nwtt.eth[0].phyLayer.interFrameGapInserter interpacketGap:vector ETV
attr interpolationmode sample-hold
attr recordingmode vector
attr source "count(interpacketGapStarted) - count(interpacketGapEnded)"
attr title "interpacket gap state"
attr type int
vector 31 simpleTsn.detCom.nwtt.eth[0].phyLayer.transmitter transmitting:vector ETV
attr interpolationmode sample-hold
attr recordingmode vector
attr source "count(transmissionStarted) - count(transmissionEnded)"
attr title "transmitting state"
attr type int
vector 32 simpleTsn.detCom.nwtt.tt[0].phyLayer.interFrameGapInserter interpacketGap:vector ETV
attr interpolationmode sample-hold
attr recordingmode vector
attr source "count(interpacketGapStarted) - count(interpacketGapEnded)"
attr title "interpacket gap state"
attr type int
vector 33 simpleTsn.detCom.nwtt.tt[0].phyLayer.transmitter transmitting:vector ETV
attr interpolationmode sample-hold
attr recordingmode vector
attr source "count(transmissionStarted) - count(transmissionEnded)"
attr title "transmitting state"
attr type int
vector 34 simpleTsn.bridge1.eth[0].macLayer.queue.transmissionGate[0] gateState:vector ETV
attr enum CLOSED,OPEN
attr interpolationmode sample-hold
attr moduledisplaypath "simpleTsn.bridge1.eth[0].macLayer.queue.best effort"
attr recordingmode vector
attr source gateStateChanged
attr title "gate state"
attr type enum
vector 35 simpleTsn.bridge1.eth[0].macLayer.queue.transmissionGate[0] guardBandState:vector ETV
attr enum ON,OFF
attr interpolationmode sample-hold
attr moduledisplaypath "simpleTsn.bridge1.eth[0].macLayer.queue.best effort"
attr recordingmode vector
attr source guardBandStateChanged
attr title "guard band state"
attr type enum
vector 36 simpleTsn.bridge1.eth[0].macLayer.queue.transmissionGate[1] gateState:vector ETV
attr enum CLOSED,OPEN
attr interpolationmode sample-hold
attr moduledisplaypath simpleTsn.bridge1.eth[0].macLayer.queue.video
attr recordingmode vector
attr source gateStateChanged
attr title "gate state"
attr type enum
vector 37 simpleTsn.bridge1.eth[0].macLayer.queue.transmissionGate[1] guardBandState:vector ETV
attr enum ON,OFF
attr interpolationmode sample-hold
attr moduledisplaypath simpleTsn.bridge1.eth[0].macLayer.queue.video
attr recordingmode vector
attr source guardBandStateChanged
attr title "guard band state"
attr type enum
vector 38 simpleTsn.bridge1.eth[0].macLayer.queue.transmissionGate[2] gateState:vector ETV
attr enum CLOSED,OPEN
attr interpolationmode sample-hold
attr moduledisplaypath simpleTsn.bridge1.eth[0].macLayer.queue.control
attr recordingmode vector
attr source gateStateChanged
attr title "gate state"
attr type enum
vector 39 simpleTsn.bridge1.eth[0].macLayer.queue.transmissionGate[2] guardBandState:vector ETV
attr enum ON,OFF
attr interpolationmode sample-hold
attr moduledisplaypath simpleTsn.bridge1.eth[0].macLayer.queue.control
attr recordingmode vector
attr source guardBandStateChanged
attr title "guard band state"
attr type enum
vector 40 simpleTsn.bridge1.eth[0].macLayer.queue.transmissionGate[3] gateState:vector ETV
attr enum CLOSED,OPEN
attr interpolationmode sample-hold
attr moduledisplaypath simpleTsn.bridge1.eth[0].macLayer.queue.p3
attr recordingmode vector
attr source gateStateChanged
attr title "gate state"
attr type enum
vector 41 simpleTsn.bridge1.eth[0].macLayer.queue.transmissionGate[3] guardBandState:vector ETV
attr enum ON,OFF
attr interpolationmode sample-hold
attr moduledisplaypath simpleTsn.bridge1.eth[0].macLayer.queue.p3
attr recordingmode vector
attr source guardBandStateChanged
attr title "guard band state"
attr type enum
vector 42 simpleTsn.bridge1.eth[0].macLayer.queue.transmissionGate[4] gateState:vector ETV
attr enum CLOSED,OPEN
attr interpolationmode sample-hold
attr moduledisplaypath simpleTsn.bridge1.eth[0].macLayer.queue.p4
attr recordingmode vector
attr source gateStateChanged
attr title "gate state"
attr type enum
vector 43 simpleTsn.bridge1.eth[0].macLayer.queue.transmissionGate[4] guardBandState:vector ETV
attr enum ON,OFF
attr interpolationmode sample-hold
attr moduledisplaypath simpleTsn.bridge1.eth[0].macLayer.queue.p4
attr recordingmode vector
attr source guardBandStateChanged
attr title "guard band state"
attr type enum
vector 44 simpleTsn.bridge1.eth[0].macLayer.queue.transmissionGate[5] gateState:vector ETV
attr enum CLOSED,OPEN
attr interpolationmode sample-hold
attr moduledisplaypath simpleTsn.bridge1.eth[0].macLayer.queue.p5
attr recordingmode vector
attr source gateStateChanged
attr title "gate state"
attr type enum
vector 45 simpleTsn.bridge1.eth[0].macLayer.queue.transmissionGate[5] guardBandState:vector ETV
attr enum ON,OFF
attr interpolationmode sample-hold
attr moduledisplaypath simpleTsn.bridge1.eth[0].macLayer.queue.p5
attr recordingmode vector
attr source guardBandStateChanged
attr title "guard band state"
attr type enum
vector 46 simpleTsn.bridge1.eth[0].macLayer.queue.transmissionGate[6] gateState:vector ETV
attr enum CLOSED,OPEN
attr interpolationmode sample-hold
attr moduledisplaypath simpleTsn.bridge1.eth[0].macLayer.queue.p6
attr recordingmode vector
attr source gateStateChanged
attr title "gate state"
attr type enum
vector 47 simpleTsn.bridge1.eth[0].macLayer.queue.transmissionGate[6] guardBandState:vector ETV
attr enum ON,OFF
attr interpolationmode sample-hold
attr moduledisplaypath simpleTsn.bridge1.eth[0].macLayer.queue.p6
attr recordingmode vector
attr source guardBandStateChanged
attr title "guard band state"
attr type enum
vector 48 simpleTsn.bridge1.eth[0].macLayer.queue.transmissionGate[7] gateState:vector ETV
attr enum CLOSED,OPEN
attr interpolationmode sample-hold
attr moduledisplaypath simpleTsn.bridge1.eth[0].macLayer.queue.p7
attr recordingmode vector
attr source gateStateChanged
attr title "gate state"
attr type enum
vector 49 simpleTsn.bridge1.eth[0].macLayer.queue.transmissionGate[7] guardBandState:vector ETV
attr enum ON,OFF
attr interpolationmode sample-hold
attr moduledisplaypath simpleTsn.bridge1.eth[0].macLayer.queue.p7
attr recordingmode vector
attr source guardBandStateChanged
attr title "guard band state"
attr type enum
vector 50 simpleTsn.bridge1.eth[1].macLayer.queue.transmissionGate[0] gateState:vector ETV
attr enum CLOSED,OPEN
attr interpolationmode sample-hold
attr moduledisplaypath "simpleTsn.bridge1.eth[1].macLayer.queue.best effort"
attr recordingmode vector
attr source gateStateChanged
attr title "gate state"
attr type enum
vector 51 simpleTsn.bridge1.eth[1].macLayer.queue.transmissionGate[0] guardBandState:vector ETV
attr enum ON,OFF
attr interpolationmode sample-hold
attr moduledisplaypath "simpleTsn.bridge1.eth[1].macLayer.queue.best effort"
attr recordingmode vector
attr source guardBandStateChanged
attr title "guard band state"
attr type enum
vector 52 simpleTsn.bridge1.eth[1].macLayer.queue.transmissionGate[1] gateState:vector ETV
attr enum CLOSED,OPEN
attr interpolationmode sample-hold
attr moduledisplaypath simpleTsn.bridge1.eth[1].macLayer.queue.video
attr recordingmode vector
attr source gateStateChanged
attr title "gate state"
attr type enum
vector 53 simpleTsn.bridge1.eth[1].macLayer.queue.transmissionGate[1] guardBandState:vector ETV
attr enum ON,OFF
attr interpolationmode sample-hold
attr moduledisplaypath simpleTsn.bridge1.eth[1].macLayer.queue.video
attr recordingmode vector
attr source guardBandStateChanged
attr title "guard band state"
attr type enum
vector 54 simpleTsn.bridge1.eth[1].macLayer.queue.transmissionGate[2] gateState:vector ETV
attr enum CLOSED,OPEN
attr interpolationmode sample-hold
attr moduledisplaypath simpleTsn.bridge1.eth[1].macLayer.queue.control
attr recordingmode vector
attr source gateStateChanged
attr title "gate state"
attr type enum
vector 55 simpleTsn.bridge1.eth[1].macLayer.queue.transmissionGate[2] guardBandState:vector ETV
attr enum ON,OFF
attr interpolationmode sample-hold
attr moduledisplaypath simpleTsn.bridge1.eth[1].macLayer.queue.control
attr recordingmode vector
attr source guardBandStateChanged
attr title "guard band state"
attr type enum
vector 56 simpleTsn.bridge1.eth[1].macLayer.queue.transmissionGate[3] gateState:vector ETV
attr enum CLOSED,OPEN
attr interpolationmode sample-hold
attr moduledisplaypath simpleTsn.bridge1.eth[1].macLayer.queue.p3
attr recordingmode vector
attr source gateStateChanged
attr title "gate state"
attr type enum
vector 57 simpleTsn.bridge1.eth[1].macLayer.queue.transmissionGate[3] guardBandState:vector ETV
attr enum ON,OFF
attr interpolationmode sample-hold
attr moduledisplaypath simpleTsn.bridge1.eth[1].macLayer.queue.p3
attr recordingmode vector
attr source guardBandStateChanged
attr title "guard band state"
attr type enum
vector 58 simpleTsn.bridge1.eth[1].macLayer.queue.transmissionGate[4] gateState:vector ETV
attr enum CLOSED,OPEN
attr interpolationmode sample-hold
attr moduledisplaypath simpleTsn.bridge1.eth[1].macLayer.queue.p4
attr recordingmode vector
attr source gateStateChanged
attr title "gate state"
attr type enum
vector 59 simpleTsn.bridge1.eth[1].macLayer.queue.transmissionGate[4] guardBandState:vector ETV
attr enum ON,OFF
attr interpolationmode sample-hold
attr moduledisplaypath simpleTsn.bridge1.eth[1].macLayer.queue.p4
attr recordingmode vector
attr source guardBandStateChanged
attr title "guard band state"
attr type enum
vector 60 simpleTsn.bridge1.eth[1].macLayer.queue.transmissionGate[5] gateState:vector ETV
attr enum CLOSED,OPEN
attr interpolationmode sample-hold
attr moduledisplaypath simpleTsn.bridge1.eth[1].macLayer.queue.p5
attr recordingmode vector
attr source gateStateChanged
attr title "gate state"
attr type enum
vector 61 simpleTsn.bridge1.eth[1].macLayer.queue.transmissionGate[5] guardBandState:vector ETV
attr enum ON,OFF
attr interpolationmode sample-hold
attr moduledisplaypath simpleTsn.bridge1.eth[1].macLayer.queue.p5
attr recordingmode vector
attr source guardBandStateChanged
attr title "guard band state"
attr type enum
vector 62 simpleTsn.bridge1.eth[1].macLayer.queue.transmissionGate[6] gateState:vector ETV
attr enum CLOSED,OPEN
attr interpolationmode sample-hold
attr moduledisplaypath simpleTsn.bridge1.eth[1].macLayer.queue.p6
attr recordingmode vector
attr source gateStateChanged
attr title "gate state"
attr type enum
vector 63 simpleTsn.bridge1.eth[1].macLayer.queue.transmissionGate[6] guardBandState:vector ETV
attr enum ON,OFF
attr interpolationmode sample-hold
attr moduledisplaypath simpleTsn.bridge1.eth[1].macLayer.queue.p6
attr recordingmode vector
attr source guardBandStateChanged
attr title "guard band state"
attr type enum
vector 64 simpleTsn.bridge1.eth[1].macLayer.queue.transmissionGate[7] gateState:vector ETV
attr enum CLOSED,OPEN
attr interpolationmode sample-hold
attr moduledisplaypath simpleTsn.bridge1.eth[1].macLayer.queue.p7
attr recordingmode vector
attr source gateStateChanged
attr title "gate state"
attr type enum
vector 65 simpleTsn.bridge1.eth[1].macLayer.queue.transmissionGate[7] guardBandState:vector ETV
attr enum ON,OFF
attr interpolationmode sample-hold
attr moduledisplaypath simpleTsn.bridge1.eth[1].macLayer.queue.p7
attr recordingmode vector
attr source guardBandStateChanged
attr title "guard band state"
attr type enum
vector 66 simpleTsn.bridge1.eth[2].macLayer.queue.transmissionGate[0] gateState:vector ETV
attr enum CLOSED,OPEN
attr interpolationmode sample-hold
attr moduledisplaypath "simpleTsn.bridge1.eth[2].macLayer.queue.best effort"
attr recordingmode vector
attr source gateStateChanged
attr title "gate state"
attr type enum
vector 67 simpleTsn.bridge1.eth[2].macLayer.queue.transmissionGate[0] guardBandState:vector ETV
attr enum ON,OFF
attr interpolationmode sample-hold
attr moduledisplaypath "simpleTsn.bridge1.eth[2].macLayer.queue.best effort"
attr recordingmode vector
attr source guardBandStateChanged
attr title "guard band state"
attr type enum
vector 68 simpleTsn.bridge1.eth[2].macLayer.queue.transmissionGate[1] gateState:vector ETV
attr enum CLOSED,OPEN
attr interpolationmode sample-hold
attr moduledisplaypath simpleTsn.bridge1.eth[2].macLayer.queue.video
attr recordingmode vector
attr source gateStateChanged
attr title "gate state"
attr type enum
vector 69 simpleTsn.bridge1.eth[2].macLayer.queue.transmissionGate[1] guardBandState:vector ETV
attr enum ON,OFF
attr interpolationmode sample-hold
attr moduledisplaypath simpleTsn.bridge1.eth[2].macLayer.queue.video
attr recordingmode vector
attr source guardBandStateChanged
attr title "guard band state"
attr type enum
vector 70 simpleTsn.bridge1.eth[2].macLayer.queue.transmissionGate[2] gateState:vector ETV
attr enum CLOSED,OPEN
attr interpolationmode sample-hold
attr moduledisplaypath simpleTsn.bridge1.eth[2].macLayer.queue.control
attr recordingmode vector
attr source gateStateChanged
attr title "gate state"
attr type enum
vector 71 simpleTsn.bridge1.eth[2].macLayer.queue.transmissionGate[2] guardBandState:vector ETV
attr enum ON,OFF
attr interpolationmode sample-hold
attr moduledisplaypath simpleTsn.bridge1.eth[2].macLayer.queue.control
attr recordingmode vector
attr source guardBandStateChanged
attr title "guard band state"
attr type enum
vector 72 simpleTsn.bridge1.eth[2].macLayer.queue.transmissionGate[3] gateState:vector ETV
attr enum CLOSED,OPEN
attr interpolationmode sample-hold
attr moduledisplaypath simpleTsn.bridge1.eth[2].macLayer.queue.p3
attr recordingmode vector
attr source gateStateChanged
attr title "gate state"
attr type enum
vector 73 simpleTsn.bridge1.eth[2].macLayer.queue.transmissionGate[3] guardBandState:vector ETV
attr enum ON,OFF
attr interpolationmode sample-hold
attr moduledisplaypath simpleTsn.bridge1.eth[2].macLayer.queue.p3
attr recordingmode vector
attr source guardBandStateChanged
attr title "guard band state"
attr type enum
vector 74 simpleTsn.bridge1.eth[2].macLayer.queue.transmissionGate[4] gateState:vector ETV
attr enum CLOSED,OPEN
attr interpolationmode sample-hold
attr moduledisplaypath simpleTsn.bridge1.eth[2].macLayer.queue.p4
attr recordingmode vector
attr source gateStateChanged
attr title "gate state"
attr type enum
vector 75 simpleTsn.bridge1.eth[2].macLayer.queue.transmissionGate[4] guardBandState:vector ETV
attr enum ON,OFF
attr interpolationmode sample-hold
attr moduledisplaypath simpleTsn.bridge1.eth[2].macLayer.queue.p4
attr recordingmode vector
attr source guardBandStateChanged
attr title "guard band state"
attr type enum
vector 76 simpleTsn.bridge1.eth[2].macLayer.queue.transmissionGate[5] gateState:vector ETV
attr enum CLOSED,OPEN
attr interpolationmode sample-hold
attr moduledisplaypath simpleTsn.bridge1.eth[2].macLayer.queue.p5
attr recordingmode vector
attr source gateStateChanged
attr title "gate state"
attr type enum
vector 77 simpleTsn.bridge1.eth[2].macLayer.queue.transmissionGate[5] guardBandState:vector ETV
attr enum ON,OFF
attr interpolationmode sample-hold
attr moduledisplaypath simpleTsn.bridge1.eth[2].macLayer.queue.p5
attr recordingmode vector
attr source guardBandStateChanged
attr title "guard band state"
attr type enum
vector 78 simpleTsn.bridge1.eth[2].macLayer.queue.transmissionGate[6] gateState:vector ETV
attr enum CLOSED,OPEN
attr interpolationmode sample-hold
attr moduledisplaypath simpleTsn.bridge1.eth[2].macLayer.queue.p6
attr recordingmode vector
attr source gateStateChanged
attr title "gate state"
attr type enum
vector 79 simpleTsn.bridge1.eth[2].macLayer.queue.transmissionGate[6] guardBandState:vector ETV
attr enum ON,OFF
attr interpolationmode sample-hold
attr moduledisplaypath simpleTsn.bridge1.eth[2].macLayer.queue.p6
attr recordingmode vector
attr source guardBandStateChanged
attr title "guard band state"
attr type enum
vector 80 simpleTsn.bridge1.eth[2].macLayer.queue.transmissionGate[7] gateState:vector ETV
attr enum CLOSED,OPEN
attr interpolationmode sample-hold
attr moduledisplaypath simpleTsn.bridge1.eth[2].macLayer.queue.p7
attr recordingmode vector
attr source gateStateChanged
attr title "gate state"
attr type enum
vector 81 simpleTsn.bridge1.eth[2].macLayer.queue.transmissionGate[7] guardBandState:vector ETV
attr enum ON,OFF
attr interpolationmode sample-hold
attr moduledisplaypath simpleTsn.bridge1.eth[2].macLayer.queue.p7
attr recordingmode vector
attr source guardBandStateChanged
attr title "guard band state"
attr type enum
vector 82 simpleTsn.bridge2.eth[0].macLayer.queue.transmissionGate[0] gateState:vector ETV
attr enum CLOSED,OPEN
attr interpolationmode sample-hold
attr moduledisplaypath "simpleTsn.bridge2.eth[0].macLayer.queue.best effort"
attr recordingmode vector
attr source gateStateChanged
attr title "gate state"
attr type enum
vector 83 simpleTsn.bridge2.eth[0].macLayer.queue.transmissionGate[0] guardBandState:vector ETV
attr enum ON,OFF
attr interpolationmode sample-hold
attr moduledisplaypath "simpleTsn.bridge2.eth[0].macLayer.queue.best effort"
attr recordingmode vector
attr source guardBandStateChanged
attr title "guard band state"
attr type enum
vector 84 simpleTsn.bridge2.eth[0].macLayer.queue.transmissionGate[1] gateState:vector ETV
attr enum CLOSED,OPEN
attr interpolationmode sample-hold
attr moduledisplaypath simpleTsn.bridge2.eth[0].macLayer.queue.video
attr recordingmode vector
attr source gateStateChanged
attr title "gate state"
attr type enum
vector 85 simpleTsn.bridge2.eth[0].macLayer.queue.transmissionGate[1] guardBandState:vector ETV
attr enum ON,OFF
attr interpolationmode sample-hold
attr moduledisplaypath simpleTsn.bridge2.eth[0].macLayer.queue.video
attr recordingmode vector
attr source guardBandStateChanged
attr title "guard band state"
attr type enum
vector 86 simpleTsn.bridge2.eth[0].macLayer.queue.transmissionGate[2] gateState:vector ETV
attr enum CLOSED,OPEN
attr interpolationmode sample-hold
attr moduledisplaypath simpleTsn.bridge2.eth[0].macLayer.queue.control
attr recordingmode vector
attr source gateStateChanged
attr title "gate state"
attr type enum
vector 87 simpleTsn.bridge2.eth[0].macLayer.queue.transmissionGate[2] guardBandState:vector ETV
attr enum ON,OFF
attr interpolationmode sample-hold
attr moduledisplaypath simpleTsn.bridge2.eth[0].macLayer.queue.control
attr recordingmode vector
attr source guardBandStateChanged
attr title "guard band state"
attr type enum
vector 88 simpleTsn.bridge2.eth[0].macLayer.queue.transmissionGate[3] gateState:vector ETV
attr enum CLOSED,OPEN
attr interpolationmode sample-hold
attr moduledisplaypath simpleTsn.bridge2.eth[0].macLayer.queue.p3
attr recordingmode vector
attr source gateStateChanged
attr title "gate state"
attr type enum
vector 89 simpleTsn.bridge2.eth[0].macLayer.queue.transmissionGate[3] guardBandState:vector ETV
attr enum ON,OFF
attr interpolationmode sample-hold
attr moduledisplaypath simpleTsn.bridge2.eth[0].macLayer.queue.p3
attr recordingmode vector
attr source guardBandStateChanged
attr title "guard band state"
attr type enum
vector 90 simpleTsn.bridge2.eth[0].macLayer.queue.transmissionGate[4] gateState:vector ETV
attr enum CLOSED,OPEN
attr interpolationmode sample-hold
attr moduledisplaypath simpleTsn.bridge2.eth[0].macLayer.queue.p4
attr recordingmode vector
attr source gateStateChanged
attr title "gate state"
attr type enum
vector 91 simpleTsn.bridge2.eth[0].macLayer.queue.transmissionGate[4] guardBandState:vector ETV
attr enum ON,OFF
attr interpolationmode sample-hold
attr moduledisplaypath simpleTsn.bridge2.eth[0].macLayer.queue.p4
attr recordingmode vector
attr source guardBandStateChanged
attr title "guard band state"
attr type enum
vector 92 simpleTsn.bridge2.eth[0].macLayer.queue.transmissionGate[5] gateState:vector ETV
attr enum CLOSED,OPEN
attr interpolationmode sample-hold
attr moduledisplaypath simpleTsn.bridge2.eth[0].macLayer.queue.p5
attr recordingmode vector
attr source gateStateChanged
attr title "gate state"
attr type enum
vector 93 simpleTsn.bridge2.eth[0].macLayer.queue.transmissionGate[5] guardBandState:vector ETV
attr enum ON,OFF
attr interpolationmode sample-hold
attr moduledisplaypath simpleTsn.bridge2.eth[0].macLayer.queue.p5
attr recordingmode vector
attr source guardBandStateChanged
attr title "guard band state"
attr type enum
vector 94 simpleTsn.bridge2.eth[0].macLayer.queue.transmissionGate[6] gateState:vector ETV
attr enum CLOSED,OPEN
attr interpolationmode sample-hold
attr moduledisplaypath simpleTsn.bridge2.eth[0].macLayer.queue.p6
attr recordingmode vector
attr source gateStateChanged
attr title "gate state"
attr type enum
vector 95 simpleTsn.bridge2.eth[0].macLayer.queue.transmissionGate[6] guardBandState:vector ETV
attr enum ON,OFF
attr interpolationmode sample-hold
attr moduledisplaypath simpleTsn.bridge2.eth[0].macLayer.queue.p6
attr recordingmode vector
attr source guardBandStateChanged
attr title "guard band state"
attr type enum
vector 96 simpleTsn.bridge2.eth[0].macLayer.queue.transmissionGate[7] gateState:vector ETV
attr enum CLOSED,OPEN
attr interpolationmode sample-hold
attr moduledisplaypath simpleTsn.bridge2.eth[0].macLayer.queue.p7
attr recordingmode vector
attr source gateStateChanged
attr title "gate state"
attr type enum
vector 97 simpleTsn.bridge2.eth[0].macLayer.queue.transmissionGate[7] guardBandState:vector ETV
attr enum ON,OFF
attr interpolationmode sample-hold
attr moduledisplaypath simpleTsn.bridge2.eth[0].macLayer.queue.p7
attr recordingmode vector
attr source guardBandStateChanged
attr title "guard band state"
attr type enum
vector 98 simpleTsn.bridge2.eth[1].macLayer.queue.transmissionGate[0] gateState:vector ETV
attr enum CLOSED,OPEN
attr interpolationmode sample-hold
attr moduledisplaypath "simpleTsn.bridge2.eth[1].macLayer.queue.best effort"
attr recordingmode vector
attr source gateStateChanged
attr title "gate state"
attr type enum
vector 99 simpleTsn.bridge2.eth[1].macLayer.queue.transmissionGate[0] guardBandState:vector ETV
attr enum ON,OFF
attr interpolationmode sample-hold
attr moduledisplaypath "simpleTsn.bridge2.eth[1].macLayer.queue.best effort"
attr recordingmode vector
attr source guardBandStateChanged
attr title "guard band state"
attr type enum
vector 100 simpleTsn.bridge2.eth[1].macLayer.queue.transmissionGate[1] gateState:vector ETV
attr enum CLOSED,OPEN
attr interpolationmode sample-hold
attr moduledisplaypath simpleTsn.bridge2.eth[1].macLayer.queue.video
attr recordingmode vector
attr source gateStateChanged
attr title "gate state"
attr type enum
vector 101 simpleTsn.bridge2.eth[1].macLayer.queue.transmissionGate[1] guardBandState:vector ETV
attr enum ON,OFF
attr interpolationmode sample-hold
attr moduledisplaypath simpleTsn.bridge2.eth[1].macLayer.queue.video
attr recordingmode vector
attr source guardBandStateChanged
attr title "guard band state"
attr type enum
vector 102 simpleTsn.bridge2.eth[1].macLayer.queue.transmissionGate[2] gateState:vector ETV
attr enum CLOSED,OPEN
attr interpolationmode sample-hold
attr moduledisplaypath simpleTsn.bridge2.eth[1].macLayer.queue.control
attr recordingmode vector
attr source gateStateChanged
attr title "gate state"
attr type enum
vector 103 simpleTsn.bridge2.eth[1].macLayer.queue.transmissionGate[2] guardBandState:vector ETV
attr enum ON,OFF
attr interpolationmode sample-hold
attr moduledisplaypath simpleTsn.bridge2.eth[1].macLayer.queue.control
attr recordingmode vector
attr source guardBandStateChanged
attr title "guard band state"
attr type enum
vector 104 simpleTsn.bridge2.eth[1].macLayer.queue.transmissionGate[3] gateState:vector ETV
attr enum CLOSED,OPEN
attr interpolationmode sample-hold
attr moduledisplaypath simpleTsn.bridge2.eth[1].macLayer.queue.p3
attr recordingmode vector
attr source gateStateChanged
attr title "gate state"
attr type enum
vector 105 simpleTsn.bridge2.eth[1].macLayer.queue.transmissionGate[3] guardBandState:vector ETV
attr enum ON,OFF
attr interpolationmode sample-hold
attr moduledisplaypath simpleTsn.bridge2.eth[1].macLayer.queue.p3
attr recordingmode vector
attr source guardBandStateChanged
attr title "guard band state"
attr type enum
vector 106 simpleTsn.bridge2.eth[1].macLayer.queue.transmissionGate[4] gateState:vector ETV
attr enum CLOSED,OPEN
attr interpolationmode sample-hold
attr moduledisplaypath simpleTsn.bridge2.eth[1].macLayer.queue.p4
attr recordingmode vector
attr source gateStateChanged
attr title "gate state"
attr type enum
vector 107 simpleTsn.bridge2.eth[1].macLayer.queue.transmissionGate[4] guardBandState:vector ETV
attr enum ON,OFF
attr interpolationmode sample-hold
attr moduledisplaypath simpleTsn.bridge2.eth[1].macLayer.queue.p4
attr recordingmode vector
attr source guardBandStateChanged
attr title "guard band state"
attr type enum
vector 108 simpleTsn.bridge2.eth[1].macLayer.queue.transmissionGate[5] gateState:vector ETV
attr enum CLOSED,OPEN
attr interpolationmode sample-hold
attr moduledisplaypath simpleTsn.bridge2.eth[1].macLayer.queue.p5
attr recordingmode vector
attr source gateStateChanged
attr title "gate state"
attr type enum
vector 109 simpleTsn.bridge2.eth[1].macLayer.queue.transmissionGate[5] guardBandState:vector ETV
attr enum ON,OFF
attr interpolationmode sample-hold
attr moduledisplaypath simpleTsn.bridge2.eth[1].macLayer.queue.p5
attr recordingmode vector
attr source guardBandStateChanged
attr title "guard band state"
attr type enum
vector 110 simpleTsn.bridge2.eth[1].macLayer.queue.transmissionGate[6] gateState:vector ETV
attr enum CLOSED,OPEN
attr interpolationmode sample-hold
attr moduledisplaypath simpleTsn.bridge2.eth[1].macLayer.queue.p6
attr recordingmode vector
attr source gateStateChanged
attr title "gate state"
attr type enum
vector 111 simpleTsn.bridge2.eth[1].macLayer.queue.transmissionGate[6] guardBandState:vector ETV
attr enum ON,OFF
attr interpolationmode sample-hold
attr moduledisplaypath simpleTsn.bridge2.eth[1].macLayer.queue.p6
attr recordingmode vector
attr source guardBandStateChanged
attr title "guard band state"
attr type enum
vector 112 simpleTsn.bridge2.eth[1].macLayer.queue.transmissionGate[7] gateState:vector ETV
attr enum CLOSED,OPEN
attr interpolationmode sample-hold
attr moduledisplaypath simpleTsn.bridge2.eth[1].macLayer.queue.p7
attr recordingmode vector
attr source gateStateChanged
attr title "gate state"
attr type enum
vector 113 simpleTsn.bridge2.eth[1].macLayer.queue.transmissionGate[7] guardBandState:vector ETV
attr enum ON,OFF
attr interpolationmode sample-hold
attr moduledisplaypath simpleTsn.bridge2.eth[1].macLayer.queue.p7
attr recordingmode vector
attr source guardBandStateChanged
attr title "guard band state"
attr type enum
vector 114 simpleTsn.bridge2.eth[2].macLayer.queue.transmissionGate[0] gateState:vector ETV
attr enum CLOSED,OPEN
attr interpolationmode sample-hold
attr moduledisplaypath "simpleTsn.bridge2.eth[2].macLayer.queue.best effort"
attr recordingmode vector
attr source gateStateChanged
attr title "gate state"
attr type enum
vector 115 simpleTsn.bridge2.eth[2].macLayer.queue.transmissionGate[0] guardBandState:vector ETV
attr enum ON,OFF
attr interpolationmode sample-hold
attr moduledisplaypath "simpleTsn.bridge2.eth[2].macLayer.queue.best effort"
attr recordingmode vector
attr source guardBandStateChanged
attr title "guard band state"
attr type enum
vector 116 simpleTsn.bridge2.eth[2].macLayer.queue.transmissionGate[1] gateState:vector ETV
attr enum CLOSED,OPEN
attr interpolationmode sample-hold
attr moduledisplaypath simpleTsn.bridge2.eth[2].macLayer.queue.video
attr recordingmode vector
attr source gateStateChanged
attr title "gate state"
attr type enum
vector 117 simpleTsn.bridge2.eth[2].macLayer.queue.transmissionGate[1] guardBandState:vector ETV
attr enum ON,OFF
attr interpolationmode sample-hold
attr moduledisplaypath simpleTsn.bridge2.eth[2].macLayer.queue.video
attr recordingmode vector
attr source guardBandStateChanged
attr title "guard band state"
attr type enum
vector 118 simpleTsn.bridge2.eth[2].macLayer.queue.transmissionGate[2] gateState:vector ETV
attr enum CLOSED,OPEN
attr interpolationmode sample-hold
attr moduledisplaypath simpleTsn.bridge2.eth[2].macLayer.queue.control
attr recordingmode vector
attr source gateStateChanged
attr title "gate state"
attr type enum
vector 119 simpleTsn.bridge2.eth[2].macLayer.queue.transmissionGate[2] guardBandState:vector ETV
attr enum ON,OFF
attr interpolationmode sample-hold
attr moduledisplaypath simpleTsn.bridge2.eth[2].macLayer.queue.control
attr recordingmode vector
attr source guardBandStateChanged
attr title "guard band state"
attr type enum
vector 120 simpleTsn.bridge2.eth[2].macLayer.queue.transmissionGate[3] gateState:vector ETV
attr enum CLOSED,OPEN
attr interpolationmode sample-hold
attr moduledisplaypath simpleTsn.bridge2.eth[2].macLayer.queue.p3
attr recordingmode vector
attr source gateStateChanged
attr title "gate state"
attr type enum
vector 121 simpleTsn.bridge2.eth[2].macLayer.queue.transmissionGate[3] guardBandState:vector ETV
attr enum ON,OFF
attr interpolationmode sample-hold
attr moduledisplaypath simpleTsn.bridge2.eth[2].macLayer.queue.p3
attr recordingmode vector
attr source guardBandStateChanged
attr title "guard band state"
attr type enum
vector 122 simpleTsn.bridge2.eth[2].macLayer.queue.transmissionGate[4] gateState:vector ETV
attr enum CLOSED,OPEN
attr interpolationmode sample-hold
attr moduledisplaypath simpleTsn.bridge2.eth[2].macLayer.queue.p4
attr recordingmode vector
attr source gateStateChanged
attr title "gate state"
attr type enum
vector 123 simpleTsn.bridge2.eth[2].macLayer.queue.transmissionGate[4] guardBandState:vector ETV
attr enum ON,OFF
attr interpolationmode sample-hold
attr moduledisplaypath simpleTsn.bridge2.eth[2].macLayer.queue.p4
attr recordingmode vector
attr source guardBandStateChanged
attr title "guard band state"
attr type enum
vector 124 simpleTsn.bridge2.eth[2].macLayer.queue.transmissionGate[5] gateState:vector ETV
attr enum CLOSED,OPEN
attr interpolationmode sample-hold
attr moduledisplaypath simpleTsn.bridge2.eth[2].macLayer.queue.p5
attr recordingmode vector
attr source gateStateChanged
attr title "gate state"
attr type enum
vector 125 simpleTsn.bridge2.eth[2].macLayer.queue.transmissionGate[5] guardBandState:vector ETV
attr enum ON,OFF
attr interpolationmode sample-hold
attr moduledisplaypath simpleTsn.bridge2.eth[2].macLayer.queue.p5
attr recordingmode vector
attr source guardBandStateChanged
attr title "guard band state"
attr type enum
vector 126 simpleTsn.bridge2.eth[2].macLayer.queue.transmissionGate[6] gateState:vector ETV
attr enum CLOSED,OPEN
attr interpolationmode sample-hold
attr moduledisplaypath simpleTsn.bridge2.eth[2].macLayer.queue.p6
attr recordingmode vector
attr source gateStateChanged
attr title "gate state"
attr type enum
vector 127 simpleTsn.bridge2.eth[2].macLayer.queue.transmissionGate[6] guardBandState:vector ETV
attr enum ON,OFF
attr interpolationmode sample-hold
attr moduledisplaypath simpleTsn.bridge2.eth[2].macLayer.queue.p6
attr recordingmode vector
attr source guardBandStateChanged
attr title "guard band state"
attr type enum
vector 128 simpleTsn.bridge2.eth[2].macLayer.queue.transmissionGate[7] gateState:vector ETV
attr enum CLOSED,OPEN
attr interpolationmode sample-hold
attr moduledisplaypath simpleTsn.bridge2.eth[2].macLayer.queue.p7
attr recordingmode vector
attr source gateStateChanged
attr title "gate state"
attr type enum
vector 129 simpleTsn.bridge2.eth[2].macLayer.queue.transmissionGate[7] guardBandState:vector ETV
attr enum ON,OFF
attr interpolationmode sample-hold
attr moduledisplaypath simpleTsn.bridge2.eth[2].macLayer.queue.p7
attr recordingmode vector
attr source guardBandStateChanged
attr title "guard band state"
attr type enum
vector 130 simpleTsn.bridge3.eth[0].macLayer.queue.transmissionGate[0] gateState:vector ETV
attr enum CLOSED,OPEN
attr interpolationmode sample-hold
attr moduledisplaypath "simpleTsn.bridge3.eth[0].macLayer.queue.best effort"
attr recordingmode vector
attr source gateStateChanged
attr title "gate state"
attr type enum
vector 131 simpleTsn.bridge3.eth[0].macLayer.queue.transmissionGate[0] guardBandState:vector ETV
attr enum ON,OFF
attr interpolationmode sample-hold
attr moduledisplaypath "simpleTsn.bridge3.eth[0].macLayer.queue.best effort"
attr recordingmode vector
attr source guardBandStateChanged
attr title "guard band state"
attr type enum
vector 132 simpleTsn.bridge3.eth[0].macLayer.queue.transmissionGate[1] gateState:vector ETV
attr enum CLOSED,OPEN
attr interpolationmode sample-hold
attr moduledisplaypath simpleTsn.bridge3.eth[0].macLayer.queue.video
attr recordingmode vector
attr source gateStateChanged
attr title "gate state"
attr type enum
vector 133 simpleTsn.bridge3.eth[0].macLayer.queue.transmissionGate[1] guardBandState:vector ETV
attr enum ON,OFF
attr interpolationmode sample-hold
attr moduledisplaypath simpleTsn.bridge3.eth[0].macLayer.queue.video
attr recordingmode vector
attr source guardBandStateChanged
attr title "guard band state"
attr type enum
vector 134 simpleTsn.bridge3.eth[0].macLayer.queue.transmissionGate[2] gateState:vector ETV
attr enum CLOSED,OPEN
attr interpolationmode sample-hold
attr moduledisplaypath simpleTsn.bridge3.eth[0].macLayer.queue.control
attr recordingmode vector
attr source gateStateChanged
attr title "gate state"
attr type enum
vector 135 simpleTsn.bridge3.eth[0].macLayer.queue.transmissionGate[2] guardBandState:vector ETV
attr enum ON,OFF
attr interpolationmode sample-hold
attr moduledisplaypath simpleTsn.bridge3.eth[0].macLayer.queue.control
attr recordingmode vector
attr source guardBandStateChanged
attr title "guard band state"
attr type enum
vector 136 simpleTsn.bridge3.eth[0].macLayer.queue.transmissionGate[3] gateState:vector ETV
attr enum CLOSED,OPEN
attr interpolationmode sample-hold
attr moduledisplaypath simpleTsn.bridge3.eth[0].macLayer.queue.p3
attr recordingmode vector
attr source gateStateChanged
attr title "gate state"
attr type enum
vector 137 simpleTsn.bridge3.eth[0].macLayer.queue.transmissionGate[3] guardBandState:vector ETV
attr enum ON,OFF
attr interpolationmode sample-hold
attr moduledisplaypath simpleTsn.bridge3.eth[0].macLayer.queue.p3
attr recordingmode vector
attr source guardBandStateChanged
attr title "guard band state"
attr type enum
vector 138 simpleTsn.bridge3.eth[0].macLayer.queue.transmissionGate[4] gateState:vector ETV
attr enum CLOSED,OPEN
attr interpolationmode sample-hold
attr moduledisplaypath simpleTsn.bridge3.eth[0].macLayer.queue.p4
attr recordingmode vector
attr source gateStateChanged
attr title "gate state"
attr type enum
vector 139 simpleTsn.bridge3.eth[0].macLayer.queue.transmissionGate[4] guardBandState:vector ETV
attr enum ON,OFF
attr interpolationmode sample-hold
attr moduledisplaypath simpleTsn.bridge3.eth[0].macLayer.queue.p4
attr recordingmode vector
attr source guardBandStateChanged
attr title "guard band state"
attr type enum
vector 140 simpleTsn.bridge3.eth[0].macLayer.queue.transmissionGate[5] gateState:vector ETV
attr enum CLOSED,OPEN
attr interpolationmode sample-hold
attr moduledisplaypath simpleTsn.bridge3.eth[0].macLayer.queue.p5
attr recordingmode vector
attr source gateStateChanged
attr title "gate state"
attr type enum
vector 141 simpleTsn.bridge3.eth[0].macLayer.queue.transmissionGate[5] guardBandState:vector ETV
attr enum ON,OFF
attr interpolationmode sample-hold
attr moduledisplaypath simpleTsn.bridge3.eth[0].macLayer.queue.p5
attr recordingmode vector
attr source guardBandStateChanged
attr title "guard band state"
attr type enum
vector 142 simpleTsn.bridge3.eth[0].macLayer.queue.transmissionGate[6] gateState:vector ETV
attr enum CLOSED,OPEN
attr interpolationmode sample-hold
attr moduledisplaypath simpleTsn.bridge3.eth[0].macLayer.queue.p6
attr recordingmode vector
attr source gateStateChanged
attr title "gate state"
attr type enum
vector 143 simpleTsn.bridge3.eth[0].macLayer.queue.transmissionGate[6] guardBandState:vector ETV
attr enum ON,OFF
attr interpolationmode sample-hold
attr moduledisplaypath simpleTsn.bridge3.eth[0].macLayer.queue.p6
attr recordingmode vector
attr source guardBandStateChanged
attr title "guard band state"
attr type enum
vector 144 simpleTsn.bridge3.eth[0].macLayer.queue.transmissionGate[7] gateState:vector ETV
attr enum CLOSED,OPEN
attr interpolationmode sample-hold
attr moduledisplaypath simpleTsn.bridge3.eth[0].macLayer.queue.p7
attr recordingmode vector
attr source gateStateChanged
attr title "gate state"
attr type enum
vector 145 simpleTsn.bridge3.eth[0].macLayer.queue.transmissionGate[7] guardBandState:vector ETV
attr enum ON,OFF
attr interpolationmode sample-hold
attr moduledisplaypath simpleTsn.bridge3.eth[0].macLayer.queue.p7
attr recordingmode vector
attr source guardBandStateChanged
attr title "guard band state"
attr type enum
vector 146 simpleTsn.bridge3.eth[1].macLayer.queue.transmissionGate[0] gateState:vector ETV
attr enum CLOSED,OPEN
attr interpolationmode sample-hold
attr moduledisplaypath "simpleTsn.bridge3.eth[1].macLayer.queue.best effort"
attr recordingmode vector
attr source gateStateChanged
attr title "gate state"
attr type enum
vector 147 simpleTsn.bridge3.eth[1].macLayer.queue.transmissionGate[0] guardBandState:vector ETV
attr enum ON,OFF
attr interpolationmode sample-hold
attr moduledisplaypath "simpleTsn.bridge3.eth[1].macLayer.queue.best effort"
attr recordingmode vector
attr source guardBandStateChanged
attr title "guard band state"
attr type enum
vector 148 simpleTsn.bridge3.eth[1].macLayer.queue.transmissionGate[1] gateState:vector ETV
attr enum CLOSED,OPEN
attr interpolationmode sample-hold
attr moduledisplaypath simpleTsn.bridge3.eth[1].macLayer.queue.video
attr recordingmode vector
attr source gateStateChanged
attr title "gate state"
attr type enum
vector 149 simpleTsn.bridge3.eth[1].macLayer.queue.transmissionGate[1] guardBandState:vector ETV
attr enum ON,OFF
attr interpolationmode sample-hold
attr moduledisplaypath simpleTsn.bridge3.eth[1].macLayer.queue.video
attr recordingmode vector
attr source guardBandStateChanged
attr title "guard band state"
attr type enum
vector 150 simpleTsn.bridge3.eth[1].macLayer.queue.transmissionGate[2] gateState:vector ETV
attr enum CLOSED,OPEN
attr interpolationmode sample-hold
attr moduledisplaypath simpleTsn.bridge3.eth[1].macLayer.queue.control
attr recordingmode vector
attr source gateStateChanged
attr title "gate state"
attr type enum
vector 151 simpleTsn.bridge3.eth[1].macLayer.queue.transmissionGate[2] guardBandState:vector ETV
attr enum ON,OFF
attr interpolationmode sample-hold
attr moduledisplaypath simpleTsn.bridge3.eth[1].macLayer.queue.control
attr recordingmode vector
attr source guardBandStateChanged
attr title "guard band state"
attr type enum
vector 152 simpleTsn.bridge3.eth[1].macLayer.queue.transmissionGate[3] gateState:vector ETV
attr enum CLOSED,OPEN
attr interpolationmode sample-hold
attr moduledisplaypath simpleTsn.bridge3.eth[1].macLayer.queue.p3
attr recordingmode vector
attr source gateStateChanged
attr title "gate state"
attr type enum
vector 153 simpleTsn.bridge3.eth[1].macLayer.queue.transmissionGate[3] guardBandState:vector ETV
attr enum ON,OFF
attr interpolationmode sample-hold
attr moduledisplaypath simpleTsn.bridge3.eth[1].macLayer.queue.p3
attr recordingmode vector
attr source guardBandStateChanged
attr title "guard band state"
attr type enum
vector 154 simpleTsn.bridge3.eth[1].macLayer.queue.transmissionGate[4] gateState:vector ETV
attr enum CLOSED,OPEN
attr interpolationmode sample-hold
attr moduledisplaypath simpleTsn.bridge3.eth[1].macLayer.queue.p4
attr recordingmode vector
attr source gateStateChanged
attr title "gate state"
attr type enum
vector 155 simpleTsn.bridge3.eth[1].macLayer.queue.transmissionGate[4] guardBandState:vector ETV
attr enum ON,OFF
attr interpolationmode sample-hold
attr moduledisplaypath simpleTsn.bridge3.eth[1].macLayer.queue.p4
attr recordingmode vector
attr source guardBandStateChanged
attr title "guard band state"
attr type enum
vector 156 simpleTsn.bridge3.eth[1].macLayer.queue.transmissionGate[5] gateState:vector ETV
attr enum CLOSED,OPEN
attr interpolationmode sample-hold
attr moduledisplaypath simpleTsn.bridge3.eth[1].macLayer.queue.p5
attr recordingmode vector
attr source gateStateChanged
attr title "gate state"
attr type enum
vector 157 simpleTsn.bridge3.eth[1].macLayer.queue.transmissionGate[5] guardBandState:vector ETV
attr enum ON,OFF
attr interpolationmode sample-hold
attr moduledisplaypath simpleTsn.bridge3.eth[1].macLayer.queue.p5
attr recordingmode vector
attr source guardBandStateChanged
attr title "guard band state"
attr type enum
vector 158 simpleTsn.bridge3.eth[1].macLayer.queue.transmissionGate[6] gateState:vector ETV
attr enum CLOSED,OPEN
attr interpolationmode sample-hold
attr moduledisplaypath simpleTsn.bridge3.eth[1].macLayer.queue.p6
attr recordingmode vector
attr source gateStateChanged
attr title "gate state"
attr type enum
vector 159 simpleTsn.bridge3.eth[1].macLayer.queue.transmissionGate[6] guardBandState:vector ETV
attr enum ON,OFF
attr interpolationmode sample-hold
attr moduledisplaypath simpleTsn.bridge3.eth[1].macLayer.queue.p6
attr recordingmode vector
attr source guardBandStateChanged
attr title "guard band state"
attr type enum
vector 160 simpleTsn.bridge3.eth[1].macLayer.queue.transmissionGate[7] gateState:vector ETV
attr enum CLOSED,OPEN
attr interpolationmode sample-hold
attr moduledisplaypath simpleTsn.bridge3.eth[1].macLayer.queue.p7
attr recordingmode vector
attr source gateStateChanged
attr title "gate state"
attr type enum
vector 161 simpleTsn.bridge3.eth[1].macLayer.queue.transmissionGate[7] guardBandState:vector ETV
attr enum ON,OFF
attr interpolationmode sample-hold
attr moduledisplaypath simpleTsn.bridge3.eth[1].macLayer.queue.p7
attr recordingmode vector
attr source guardBandStateChanged
attr title "guard band state"
attr type enum
vector 162 simpleTsn.device1.eth[0].macLayer.queue.transmissionGate[0] gateState:vector ETV
attr enum CLOSED,OPEN
attr interpolationmode sample-hold
attr recordingmode vector
attr source gateStateChanged
attr title "gate state"
attr type enum
vector 163 simpleTsn.device1.eth[0].macLayer.queue.transmissionGate[0] guardBandState:vector ETV
attr enum ON,OFF
attr interpolationmode sample-hold
attr recordingmode vector
attr source guardBandStateChanged
attr title "guard band state"
attr type enum
vector 164 simpleTsn.device1.eth[0].macLayer.queue.transmissionGate[1] gateState:vector ETV
attr enum CLOSED,OPEN
attr interpolationmode sample-hold
attr recordingmode vector
attr source gateStateChanged
attr title "gate state"
attr type enum
vector 165 simpleTsn.device1.eth[0].macLayer.queue.transmissionGate[1] guardBandState:vector ETV
attr enum ON,OFF
attr interpolationmode sample-hold
attr recordingmode vector
attr source guardBandStateChanged
attr title "guard band state"
attr type enum
vector 166 simpleTsn.device1.eth[0].macLayer.queue.transmissionGate[2] gateState:vector ETV
attr enum CLOSED,OPEN
attr interpolationmode sample-hold
attr recordingmode vector
attr source gateStateChanged
attr title "gate state"
attr type enum
vector 167 simpleTsn.device1.eth[0].macLayer.queue.transmissionGate[2] guardBandState:vector ETV
attr enum ON,OFF
attr interpolationmode sample-hold
attr recordingmode vector
attr source guardBandStateChanged
attr title "guard band state"
attr type enum
vector 168 simpleTsn.device1.eth[0].macLayer.queue.transmissionGate[3] gateState:vector ETV
attr enum CLOSED,OPEN
attr interpolationmode sample-hold
attr recordingmode vector
attr source gateStateChanged
attr title "gate state"
attr type enum
vector 169 simpleTsn.device1.eth[0].macLayer.queue.transmissionGate[3] guardBandState:vector ETV
attr enum ON,OFF
attr interpolationmode sample-hold
attr recordingmode vector
attr source guardBandStateChanged
attr title "guard band state"
attr type enum
vector 170 simpleTsn.device1.eth[0].macLayer.queue.transmissionGate[4] gateState:vector ETV
attr enum CLOSED,OPEN
attr interpolationmode sample-hold
attr recordingmode vector
attr source gateStateChanged
attr title "gate state"
attr type enum
vector 171 simpleTsn.device1.eth[0].macLayer.queue.transmissionGate[4] guardBandState:vector ETV
attr enum ON,OFF
attr interpolationmode sample-hold
attr recordingmode vector
attr source guardBandStateChanged
attr title "guard band state"
attr type enum
vector 172 simpleTsn.device1.eth[0].macLayer.queue.transmissionGate[5] gateState:vector ETV
attr enum CLOSED,OPEN
attr interpolationmode sample-hold
attr recordingmode vector
attr source gateStateChanged
attr title "gate state"
attr type enum
vector 173 simpleTsn.device1.eth[0].macLayer.queue.transmissionGate[5] guardBandState:vector ETV
attr enum ON,OFF
attr interpolationmode sample-hold
attr recordingmode vector
attr source guardBandStateChanged
attr title "guard band state"
attr type enum
vector 174 simpleTsn.device1.eth[0].macLayer.queue.transmissionGate[6] gateState:vector ETV
attr enum CLOSED,OPEN
attr interpolationmode sample-hold
attr recordingmode vector
attr source gateStateChanged
attr title "gate state"
attr type enum
vector 175 simpleTsn.device1.eth[0].macLayer.queue.transmissionGate[6] guardBandState:vector ETV
attr enum ON,OFF
attr interpolationmode sample-hold
attr recordingmode vector
attr source guardBandStateChanged
attr title "guard band state"
attr type enum
vector 176 simpleTsn.device1.eth[0].macLayer.queue.transmissionGate[7] gateState:vector ETV
attr enum CLOSED,OPEN
attr interpolationmode sample-hold
attr recordingmode vector
attr source gateStateChanged
attr title "gate state"
attr type enum
vector 177 simpleTsn.device1.eth[0].macLayer.queue.transmissionGate[7] guardBandState:vector ETV
attr enum ON,OFF
attr interpolationmode sample-hold
attr recordingmode vector
attr source guardBandStateChanged
attr title "guard band state"
attr type enum
vector 178 simpleTsn.device2.eth[0].macLayer.queue.transmissionGate[0] gateState:vector ETV
attr enum CLOSED,OPEN
attr interpolationmode sample-hold
attr recordingmode vector
attr source gateStateChanged
attr title "gate state"
attr type enum
vector 179 simpleTsn.device2.eth[0].macLayer.queue.transmissionGate[0] guardBandState:vector ETV
attr enum ON,OFF
attr interpolationmode sample-hold
attr recordingmode vector
attr source guardBandStateChanged
attr title "guard band state"
attr type enum
vector 180 simpleTsn.device2.eth[0].macLayer.queue.transmissionGate[1] gateState:vector ETV
attr enum CLOSED,OPEN
attr interpolationmode sample-hold
attr recordingmode vector
attr source gateStateChanged
attr title "gate state"
attr type enum
vector 181 simpleTsn.device2.eth[0].macLayer.queue.transmissionGate[1] guardBandState:vector ETV
attr enum ON,OFF
attr interpolationmode sample-hold
attr recordingmode vector
attr source guardBandStateChanged
attr title "guard band state"
attr type enum
vector 182 simpleTsn.device2.eth[0].macLayer.queue.transmissionGate[2] gateState:vector ETV
attr enum CLOSED,OPEN
attr interpolationmode sample-hold
attr recordingmode vector
attr source gateStateChanged
attr title "gate state"
attr type enum
vector 183 simpleTsn.device2.eth[0].macLayer.queue.transmissionGate[2] guardBandState:vector ETV
attr enum ON,OFF
attr interpolationmode sample-hold
attr recordingmode vector
attr source guardBandStateChanged
attr title "guard band state"
attr type enum
vector 184 simpleTsn.device2.eth[0].macLayer.queue.transmissionGate[3] gateState:vector ETV
attr enum CLOSED,OPEN
attr interpolationmode sample-hold
attr recordingmode vector
attr source gateStateChanged
attr title "gate state"
attr type enum
vector 185 simpleTsn.device2.eth[0].macLayer.queue.transmissionGate[3] guardBandState:vector ETV
attr enum ON,OFF
attr interpolationmode sample-hold
attr recordingmode vector
attr source guardBandStateChanged
attr title "guard band state"
attr type enum
vector 186 simpleTsn.device2.eth[0].macLayer.queue.transmissionGate[4] gateState:vector ETV
attr enum CLOSED,OPEN
attr interpolationmode sample-hold
attr recordingmode vector
attr source gateStateChanged
attr title "gate state"
attr type enum
vector 187 simpleTsn.device2.eth[0].macLayer.queue.transmissionGate[4] guardBandState:vector ETV
attr enum ON,OFF
attr interpolationmode sample-hold
attr recordingmode vector
attr source guardBandStateChanged
attr title "guard band state"
attr type enum
vector 188 simpleTsn.device2.eth[0].macLayer.queue.transmissionGate[5] gateState:vector ETV
attr enum CLOSED,OPEN
attr interpolationmode sample-hold
attr recordingmode vector
attr source gateStateChanged
attr title "gate state"
attr type enum
vector 189 simpleTsn.device2.eth[0].macLayer.queue.transmissionGate[5] guardBandState:vector ETV
attr enum ON,OFF
attr interpolationmode sample-hold
attr recordingmode vector
attr source guardBandStateChanged
attr title "guard band state"
attr type enum
vector 190 simpleTsn.device2.eth[0].macLayer.queue.transmissionGate[6] gateState:vector ETV
attr enum CLOSED,OPEN
attr interpolationmode sample-hold
attr recordingmode vector
attr source gateStateChanged
attr title "gate state"
attr type enum
vector 191 simpleTsn.device2.eth[0].macLayer.queue.transmissionGate[6] guardBandState:vector ETV
attr enum ON,OFF
attr interpolationmode sample-hold
attr recordingmode vector
attr source guardBandStateChanged
attr title "guard band state"
attr type enum
vector 192 simpleTsn.device2.eth[0].macLayer.queue.transmissionGate[7] gateState:vector ETV
attr enum CLOSED,OPEN
attr interpolationmode sample-hold
attr recordingmode vector
attr source gateStateChanged
attr title "gate state"
attr type enum
vector 193 simpleTsn.device2.eth[0].macLayer.queue.transmissionGate[7] guardBandState:vector ETV
attr enum ON,OFF
attr interpolationmode sample-hold
attr recordingmode vector
attr source guardBandStateChanged
attr title "guard band state"
attr type enum
vector 194 simpleTsn.detCom.dstt[0].eth[0].macLayer.queue.transmissionGate[0] gateState:vector ETV
attr enum CLOSED,OPEN
attr interpolationmode sample-hold
attr recordingmode vector
attr source gateStateChanged
attr title "gate state"
attr type enum
vector 195 simpleTsn.detCom.dstt[0].eth[0].macLayer.queue.transmissionGate[0] guardBandState:vector ETV
attr enum ON,OFF
attr interpolationmode sample-hold
attr recordingmode vector
attr source guardBandStateChanged
attr title "guard band state"
attr type enum
vector 196 simpleTsn.detCom.dstt[0].eth[0].macLayer.queue.transmissionGate[1] gateState:vector ETV
attr enum CLOSED,OPEN
attr interpolationmode sample-hold
attr recordingmode vector
attr source gateStateChanged
attr title "gate state"
attr type enum
vector 197 simpleTsn.detCom.dstt[0].eth[0].macLayer.queue.transmissionGate[1] guardBandState:vector ETV
attr enum ON,OFF
attr interpolationmode sample-hold
attr recordingmode vector
attr source guardBandStateChanged
attr title "guard band state"
attr type enum
vector 198 simpleTsn.detCom.dstt[0].eth[0].macLayer.queue.transmissionGate[2] gateState:vector ETV
attr enum CLOSED,OPEN
attr interpolationmode sample-hold
attr recordingmode vector
attr source gateStateChanged
attr title "gate state"
attr type enum
vector 199 simpleTsn.detCom.dstt[0].eth[0].macLayer.queue.transmissionGate[2] guardBandState:vector ETV
attr enum ON,OFF
attr interpolationmode sample-hold
attr recordingmode vector
attr source guardBandStateChanged
attr title "guard band state"
attr type enum
vector 200 simpleTsn.detCom.dstt[0].eth[0].macLayer.queue.transmissionGate[3] gateState:vector ETV
attr enum CLOSED,OPEN
attr interpolationmode sample-hold
attr recordingmode vector
attr source gateStateChanged
attr title "gate state"
attr type enum
vector 201 simpleTsn.detCom.dstt[0].eth[0].macLayer.queue.transmissionGate[3] guardBandState:vector ETV
attr enum ON,OFF
attr interpolationmode sample-hold
attr recordingmode vector
attr source guardBandStateChanged
attr title "guard band state"
attr type enum
vector 202 simpleTsn.detCom.dstt[0].eth[0].macLayer.queue.transmissionGate[4] gateState:vector ETV
attr enum CLOSED,OPEN
attr interpolationmode sample-hold
attr recordingmode vector
attr source gateStateChanged
attr title "gate state"
attr type enum
vector 203 simpleTsn.detCom.dstt[0].eth[0].macLayer.queue.transmissionGate[4] guardBandState:vector ETV
attr enum ON,OFF
attr interpolationmode sample-hold
attr recordingmode vector
attr source guardBandStateChanged
attr title "guard band state"
attr type enum
vector 204 simpleTsn.detCom.dstt[0].eth[0].macLayer.queue.transmissionGate[5] gateState:vector ETV
attr enum CLOSED,OPEN
attr interpolationmode sample-hold
attr recordingmode vector
attr source gateStateChanged
attr title "gate state"
attr type enum
vector 205 simpleTsn.detCom.dstt[0].eth[0].macLayer.queue.transmissionGate[5] guardBandState:vector ETV
attr enum ON,OFF
attr interpolationmode sample-hold
attr recordingmode vector
attr source guardBandStateChanged
attr title "guard band state"
attr type enum
vector 206 simpleTsn.detCom.dstt[0].eth[0].macLayer.queue.transmissionGate[6] gateState:vector ETV
attr enum CLOSED,OPEN
attr interpolationmode sample-hold
attr recordingmode vector
attr source gateStateChanged
attr title "gate state"
attr type enum
vector 207 simpleTsn.detCom.dstt[0].eth[0].macLayer.queue.transmissionGate[6] guardBandState:vector ETV
attr enum ON,OFF
attr interpolationmode sample-hold
attr recordingmode vector
attr source guardBandStateChanged
attr title "guard band state"
attr type enum
vector 208 simpleTsn.detCom.dstt[0].eth[0].macLayer.queue.transmissionGate[7] gateState:vector ETV
attr enum CLOSED,OPEN
attr interpolationmode sample-hold
attr recordingmode vector
attr source gateStateChanged
attr title "gate state"
attr type enum
vector 209 simpleTsn.detCom.dstt[0].eth[0].macLayer.queue.transmissionGate[7] guardBandState:vector ETV
attr enum ON,OFF
attr interpolationmode sample-hold
attr recordingmode vector
attr source guardBandStateChanged
attr title "guard band state"
attr type enum
vector 210 simpleTsn.detCom.dstt[0].tt[0].macLayer.queue.transmissionGate[0] gateState:vector ETV
attr enum CLOSED,OPEN
attr interpolationmode sample-hold
attr recordingmode vector
attr source gateStateChanged
attr title "gate state"
attr type enum
vector 211 simpleTsn.detCom.dstt[0].tt[0].macLayer.queue.transmissionGate[0] guardBandState:vector ETV
attr enum ON,OFF
attr interpolationmode sample-hold
attr recordingmode vector
attr source guardBandStateChanged
attr title "guard band state"
attr type enum
vector 212 simpleTsn.detCom.dstt[0].tt[0].macLayer.queue.transmissionGate[1] gateState:vector ETV
attr enum CLOSED,OPEN
attr interpolationmode sample-hold
attr recordingmode vector
attr source gateStateChanged
attr title "gate state"
attr type enum
vector 213 simpleTsn.detCom.dstt[0].tt[0].macLayer.queue.transmissionGate[1] guardBandState:vector ETV
attr enum ON,OFF
attr interpolationmode sample-hold
attr recordingmode vector
attr source guardBandStateChanged
attr title "guard band state"
attr type enum
vector 214 simpleTsn.detCom.dstt[0].tt[0].macLayer.queue.transmissionGate[2] gateState:vector ETV
attr enum CLOSED,OPEN
attr interpolationmode sample-hold
attr recordingmode vector
attr source gateStateChanged
attr title "gate state"
attr type enum
vector 215 simpleTsn.detCom.dstt[0].tt[0].macLayer.queue.transmissionGate[2] guardBandState:vector ETV
attr enum ON,OFF
attr interpolationmode sample-hold
attr recordingmode vector
attr source guardBandStateChanged
attr title "guard band state"
attr type enum
vector 216 simpleTsn.detCom.dstt[0].tt[0].macLayer.queue.transmissionGate[3] gateState:vector ETV
attr enum CLOSED,OPEN
attr interpolationmode sample-hold
attr recordingmode vector
attr source gateStateChanged
attr title "gate state"
attr type enum
vector 217 simpleTsn.detCom.dstt[0].tt[0].macLayer.queue.transmissionGate[3] guardBandState:vector ETV
attr enum ON,OFF
attr interpolationmode sample-hold
attr recordingmode vector
attr source guardBandStateChanged
attr title "guard band state"
attr type enum
vector 218 simpleTsn.detCom.dstt[0].tt[0].macLayer.queue.transmissionGate[4] gateState:vector ETV
attr enum CLOSED,OPEN
attr interpolationmode sample-hold
attr recordingmode vector
attr source gateStateChanged
attr title "gate state"
attr type enum
vector 219 simpleTsn.detCom.dstt[0].tt[0].macLayer.queue.transmissionGate[4] guardBandState:vector ETV
attr enum ON,OFF
attr interpolationmode sample-hold
attr recordingmode vector
attr source guardBandStateChanged
attr title "guard band state"
attr type enum
vector 220 simpleTsn.detCom.dstt[0].tt[0].macLayer.queue.transmissionGate[5] gateState:vector ETV
attr enum CLOSED,OPEN
attr interpolationmode sample-hold
attr recordingmode vector
attr source gateStateChanged
attr title "gate state"
attr type enum
vector 221 simpleTsn.detCom.dstt[0].tt[0].macLayer.queue.transmissionGate[5] guardBandState:vector ETV
attr enum ON,OFF
attr interpolationmode sample-hold
attr recordingmode vector
attr source guardBandStateChanged
attr title "guard band state"
attr type enum
vector 222 simpleTsn.detCom.dstt[0].tt[0].macLayer.queue.transmissionGate[6] gateState:vector ETV
attr enum CLOSED,OPEN
attr interpolationmode sample-hold
attr recordingmode vector
attr source gateStateChanged
attr title "gate state"
attr type enum
vector 223 simpleTsn.detCom.dstt[0].tt[0].macLayer.queue.transmissionGate[6] guardBandState:vector ETV
attr enum ON,OFF
attr interpolationmode sample-hold
attr recordingmode vector
attr source guardBandStateChanged
attr title "guard band state"
attr type enum
vector 224 simpleTsn.detCom.dstt[0].tt[0].macLayer.queue.transmissionGate[7] gateState:vector ETV
attr enum CLOSED,OPEN
attr interpolationmode sample-hold
attr recordingmode vector
attr source gateStateChanged
attr title "gate state"
attr type enum
vector 225 simpleTsn.detCom.dstt[0].tt[0].macLayer.queue.transmissionGate[7] guardBandState:vector ETV
attr enum ON,OFF
attr interpolationmode sample-hold
attr recordingmode vector
attr source guardBandStateChanged
attr title "guard band state"
attr type enum
vector 226 simpleTsn.detCom.nwtt.eth[0].macLayer.queue.transmissionGate[0] gateState:vector ETV
attr enum CLOSED,OPEN
attr interpolationmode sample-hold
attr recordingmode vector
attr source gateStateChanged
attr title "gate state"
attr type enum
vector 227 simpleTsn.detCom.nwtt.eth[0].macLayer.queue.transmissionGate[0] guardBandState:vector ETV
attr enum ON,OFF
attr interpolationmode sample-hold
attr recordingmode vector
attr source guardBandStateChanged
attr title "guard band state"
attr type enum
vector 228 simpleTsn.detCom.nwtt.eth[0].macLayer.queue.transmissionGate[1] gateState:vector ETV
attr enum CLOSED,OPEN
attr interpolationmode sample-hold
attr recordingmode vector
attr source gateStateChanged
attr title "gate state"
attr type enum
vector 229 simpleTsn.detCom.nwtt.eth[0].macLayer.queue.transmissionGate[1] guardBandState:vector ETV
attr enum ON,OFF
attr interpolationmode sample-hold
attr recordingmode vector
attr source guardBandStateChanged
attr title "guard band state"
attr type enum
vector 230 simpleTsn.detCom.nwtt.eth[0].macLayer.queue.transmissionGate[2] gateState:vector ETV
attr enum CLOSED,OPEN
attr interpolationmode sample-hold
attr recordingmode vector
attr source gateStateChanged
attr title "gate state"
attr type enum
vector 231 simpleTsn.detCom.nwtt.eth[0].macLayer.queue.transmissionGate[2] guardBandState:vector ETV
attr enum ON,OFF
attr interpolationmode sample-hold
attr recordingmode vector
attr source guardBandStateChanged
attr title "guard band state"
attr type enum
vector 232 simpleTsn.detCom.nwtt.eth[0].macLayer.queue.transmissionGate[3] gateState:vector ETV
attr enum CLOSED,OPEN
attr interpolationmode sample-hold
attr recordingmode vector
attr source gateStateChanged
attr title "gate state"
attr type enum
vector 233 simpleTsn.detCom.nwtt.eth[0].macLayer.queue.transmissionGate[3] guardBandState:vector ETV
attr enum ON,OFF
attr interpolationmode sample-hold
attr recordingmode vector
attr source guardBandStateChanged
attr title "guard band state"
attr type enum
vector 234 simpleTsn.detCom.nwtt.eth[0].macLayer.queue.transmissionGate[4] gateState:vector ETV
attr enum CLOSED,OPEN
attr interpolationmode sample-hold
attr recordingmode vector
attr source gateStateChanged
attr title "gate state"
attr type enum
vector 235 simpleTsn.detCom.nwtt.eth[0].macLayer.queue.transmissionGate[4] guardBandState:vector ETV
attr enum ON,OFF
attr interpolationmode sample-hold
attr recordingmode vector
attr source guardBandStateChanged
attr title "guard band state"
attr type enum
vector 236 simpleTsn.detCom.nwtt.eth[0].macLayer.queue.transmissionGate[5] gateState:vector ETV
attr enum CLOSED,OPEN
attr interpolationmode sample-hold
attr recordingmode vector
attr source gateStateChanged
attr title "gate state"
attr type enum
vector 237 simpleTsn.detCom.nwtt.eth[0].macLayer.queue.transmissionGate[5] guardBandState:vector ETV
attr enum ON,OFF
attr interpolationmode sample-hold
attr recordingmode vector
attr source guardBandStateChanged
attr title "guard band state"
attr type enum
vector 238 simpleTsn.detCom.nwtt.eth[0].macLayer.queue.transmissionGate[6] gateState:vector ETV
attr enum CLOSED,OPEN
attr interpolationmode sample-hold
attr recordingmode vector
attr source gateStateChanged
attr title "gate state"
attr type enum
vector 239 simpleTsn.detCom.nwtt.eth[0].macLayer.queue.transmissionGate[6] guardBandState:vector ETV
attr enum ON,OFF
attr interpolationmode sample-hold
attr recordingmode vector
attr source guardBandStateChanged
attr title "guard band state"
attr type enum
vector 240 simpleTsn.detCom.nwtt.eth[0].macLayer.queue.transmissionGate[7] gateState:vector ETV
attr enum CLOSED,OPEN
attr interpolationmode sample-hold
attr recordingmode vector
attr source gateStateChanged
attr title "gate state"
attr type enum
vector 241 simpleTsn.detCom.nwtt.eth[0].macLayer.queue.transmissionGate[7] guardBandState:vector ETV
attr enum ON,OFF
attr interpolationmode sample-hold
attr recordingmode vector
attr source guardBandStateChanged
attr title "guard band state"
attr type enum
vector 242 simpleTsn.detCom.nwtt.tt[0].macLayer.queue.transmissionGate[0] gateState:vector ETV
attr enum CLOSED,OPEN
attr interpolationmode sample-hold
attr recordingmode vector
attr source gateStateChanged
attr title "gate state"
attr type enum
vector 243 simpleTsn.detCom.nwtt.tt[0].macLayer.queue.transmissionGate[0] guardBandState:vector ETV
attr enum ON,OFF
attr interpolationmode sample-hold
attr recordingmode vector
attr source guardBandStateChanged
attr title "guard band state"
attr type enum
vector 244 simpleTsn.detCom.nwtt.tt[0].macLayer.queue.transmissionGate[1] gateState:vector ETV
attr enum CLOSED,OPEN
attr interpolationmode sample-hold
attr recordingmode vector
attr source gateStateChanged
attr title "gate state"
attr type enum
vector 245 simpleTsn.detCom.nwtt.tt[0].macLayer.queue.transmissionGate[1] guardBandState:vector ETV
attr enum ON,OFF
attr interpolationmode sample-hold
attr recordingmode vector
attr source guardBandStateChanged
attr title "guard band state"
attr type enum
vector 246 simpleTsn.detCom.nwtt.tt[0].macLayer.queue.transmissionGate[2] gateState:vector ETV
attr enum CLOSED,OPEN
attr interpolationmode sample-hold
attr recordingmode vector
attr source gateStateChanged
attr title "gate state"
attr type enum
vector 247 simpleTsn.detCom.nwtt.tt[0].macLayer.queue.transmissionGate[2] guardBandState:vector ETV
attr enum ON,OFF
attr interpolationmode sample-hold
attr recordingmode vector
attr source guardBandStateChanged
attr title "guard band state"
attr type enum
vector 248 simpleTsn.detCom.nwtt.tt[0].macLayer.queue.transmissionGate[3] gateState:vector ETV
attr enum CLOSED,OPEN
attr interpolationmode sample-hold
attr recordingmode vector
attr source gateStateChanged
attr title "gate state"
attr type enum
vector 249 simpleTsn.detCom.nwtt.tt[0].macLayer.queue.transmissionGate[3] guardBandState:vector ETV
attr enum ON,OFF
attr interpolationmode sample-hold
attr recordingmode vector
attr source guardBandStateChanged
attr title "guard band state"
attr type enum
vector 250 simpleTsn.detCom.nwtt.tt[0].macLayer.queue.transmissionGate[4] gateState:vector ETV
attr enum CLOSED,OPEN
attr interpolationmode sample-hold
attr recordingmode vector
attr source gateStateChanged
attr title "gate state"
attr type enum
vector 251 simpleTsn.detCom.nwtt.tt[0].macLayer.queue.transmissionGate[4] guardBandState:vector ETV
attr enum ON,OFF
attr interpolationmode sample-hold
attr recordingmode vector
attr source guardBandStateChanged
attr title "guard band state"
attr type enum
vector 252 simpleTsn.detCom.nwtt.tt[0].macLayer.queue.transmissionGate[5] gateState:vector ETV
attr enum CLOSED,OPEN
attr interpolationmode sample-hold
attr recordingmode vector
attr source gateStateChanged
attr title "gate state"
attr type enum
vector 253 simpleTsn.detCom.nwtt.tt[0].macLayer.queue.transmissionGate[5] guardBandState:vector ETV
attr enum ON,OFF
attr interpolationmode sample-hold
attr recordingmode vector
attr source guardBandStateChanged
attr title "guard band state"
attr type enum
vector 254 simpleTsn.detCom.nwtt.tt[0].macLayer.queue.transmissionGate[6] gateState:vector ETV
attr enum CLOSED,OPEN
attr interpolationmode sample-hold
attr recordingmode vector
attr source gateStateChanged
attr title "gate state"
attr type enum
vector 255 simpleTsn.detCom.nwtt.tt[0].macLayer.queue.transmissionGate[6] guardBandState:vector ETV
attr enum ON,OFF
attr interpolationmode sample-hold
attr recordingmode vector
attr source guardBandStateChanged
attr title "guard band state"
attr type enum
vector 256 simpleTsn.detCom.nwtt.tt[0].macLayer.queue.transmissionGate[7] gateState:vector ETV
attr enum CLOSED,OPEN
attr interpolationmode sample-hold
attr recordingmode vector
attr source gateStateChanged
attr title "gate state"
attr type enum
vector 257 simpleTsn.detCom.nwtt.tt[0].macLayer.queue.transmissionGate[7] guardBandState:vector ETV
attr enum ON,OFF
attr interpolationmode sample-hold
attr recordingmode vector
attr source guardBandStateChanged
attr title "guard band state"
attr type enum
vector 258 simpleTsn.device1.app[0].source packetLengths:vector ETV
attr interpolationmode none
attr moduledisplaypath simpleTsn.device1.stream1.source
attr recordingmode vector
attr source packetLength(packetPushed)
attr title "packet lengths"
attr unit b
vector 259 simpleTsn.device1.app[0].source dataRate:vector ETV
attr interpolationmode linear
attr moduledisplaypath simpleTsn.device1.stream1.source
attr recordingmode vector
attr source throughput(packetPushed)
attr title "data rate"
attr unit bps
vector 260 simpleTsn.device1.app[0].io packetSent:vector(packetBytes) ETV
attr interpolationmode none
attr moduledisplaypath simpleTsn.device1.stream1.io
attr recordingmode vector(packetBytes)
attr source packetSent
attr title "packets sent, packetBytes"
vector 261 simpleTsn.device1.udp packetSent:vector(packetBytes) ETV
attr interpolationmode none
attr recordingmode vector(packetBytes)
attr source packetSent
attr title "packets sent, packetBytes"
vector 262 simpleTsn.device1.bridging.streamIdentifier.identifier incomingPacketLengths:vector ETV
attr interpolationmode none
attr recordingmode vector
attr source "packetLength(merge(packetPushedIn, packetPulledIn))"
attr title "incoming packet lengths"
attr unit b
[...]
808	496889 412 55 257 0.1 3 30 0 78240 391200 30607488000
809	497301 164 55 257 2.00680392135 3.005755618988 6 7824 7824 46944 367289856
810	497465 412 55 257 0.1 3 30 0 78240 391200 30607488000
811	497877 164 55 257 2.00680392135 3.005755618988 6 7936 7936 47616 377880576
812	498041 412 55 257 0.1 3 30 0 79360 396800 31490048000
813	498453 164 55 257 2.00680392135 3.005755618988 6 7936 7936 47616 377880576
814	498617 412 55 257 0.1 3 30 0 79360 396800 31490048000
815	499029 164 55 257 2.00680392135 3.005755618988 6 7936 7936 47616 377880576
816	499193 412 55 257 0.1 3 30 0 79360 396800 31490048000
817	499605 164 55 257 2.00680392135 3.005755618988 6 7936 7936 47616 377880576
818	499769 412 55 257 0.1 3 30 0 79360 396800 31490048000
819	500181 164 55 257 2.00680392135 3.005755618988 6 7968 7968 47808 380934144
820	500345 412 55 257 0.1 3 30 0 79680 398400 31744512000
821	500757 164 55 257 2.00680392135 3.005755618988 6 7968 7968 47808 380934144
822	500921 412 55 257 0.1 3 30 0 79680 398400 31744512000
823	501333 164 55 257 2.00680392135 3.005755618988 6 7968 7968 47808 380934144
824	501497 554 55 269 0.1 4 40 0 79680 478080 38093414400
825	502051 164 55 257 2.00680392135 3.005755618988 6 7968 7968 47808 380934144
826	502215 554 55 269 0.1 4 40 0 79680 478080 38093414400
827	502769 292 55 258 2.00680392135 3.005755618988 12 0 1 6 6
828	503061 310 55 258 2.00680392135 3.005755618988 12 0 7968 47808 380934144
829	503371 292 55 258 2.00680392135 3.005755618988 12 0 1 6 6
830	503663 310 55 258 2.00680392135 3.005755618988 12 0 7968 47808 380934144
831	503973 146 56 258 2.00680392135 3.005755618988 6 0 0 0 0
832	504119 164 56 258 2.00680392135 3.005755618988 6 7968 7968 47808 380934144
833	504283 554 56 269 0.1 4 40 0 79680 478080 38093414400
834	504837 164 56 258 2.00680392135 3.005755618988 6 7968 7968 47808 380934144
835	505001 412 56 258 0.1 3 30 0 79680 398400 31744512000
836	505413 164 56 258 2.00680392135 3.005755618988 6 7968 7968 47808 380934144
837	505577 412 56 258 0.1 3 30 0 79680 398400 31744512000
838	505989 164 56 258 2.00680392135 3.005755618988 6 7968 7968 47808 380934144
839	506153 554 56 269 0.1 4 40 0 79680 478080 38093414400
840	506707 146 56 258 2.00680392135 3.005755618988 6 0 0 0 0
841	506853 164 56 258 2.00680392135 3.005755618988 6 7968 7968 47808 380934144
842	507017 412 56 258 0.1 3 30 0 79680 398400 31744512000
843	507429 164 56 258 2.00680392135 3.005755618988 6 7968 7968 47808 380934144
844	507593 554 56 269 0.1 4 40 0 79680 478080 38093414400
845	508147 164 56 258 2.00680392135 3.005755618988 6 7968 7968 47808 380934144
846	508311 554 56 269 0.1 4 40 0 79680 478080 38093414400
847	508865 164 56 258 2.00680392135 3.005755618988 6 7968 7968 47808 380934144
848	509029 412 56 258 0.1 3 30 0 79680 398400 31744512000
849	509441 164 56 258 2.00680392135 3.005755618988 6 7968 7968 47808 380934144
850	509605 412 56 258 0.1 3 30 0 79680 398400 31744512000
851	510017 164 56 258 2.00680392135 3.005755618988 6 7968 7968 47808 380934144
852	510181 412 56 258 0.1 3 30 0 79680 398400 31744512000
853	510593 164 56 258 2.00680392135 3.005755618988 6 8032 8032 48192 387078144
854	510757 412 56 258 0.1 3 30 0 80320 401600 32256512000
855	511169 164 56 258 2.00680392135 3.005755618988 6 8032 8032 48192 387078144
856	511333 412 56 258 0.1 3 30 0 80320 401600 32256512000
857	511745 164 56 258 2.00680392135 3.005755618988 6 8032 8032 48192 387078144
858	511909 412 56 258 0.1 3 30 0 80320 401600 32256512000
859	512321 427 56 258 0.1 3 30 0 0.008032 0.04016 0.00032256512
860	512748 556 59 269 0.1 4 40 0 80320 481920 38707814400
861	513304 195 59 261 2.00681195335 3.005763650988 6 8.032e-06 8.032e-06 4.8192e-05 3.87078144e-10
862	513499 556 60 269 0.1 4 40 0 80320 481920 38707814400
863	514055 195 60 262 2.00681200335 3.005763700988 6 8.032e-06 8.032e-06 4.8192e-05 3.87078144e-10
864	514250 165 60 262 2.00681200335 3.005763700988 6 8032 8032 48192 387078144
865	514415 414 60 262 0.1 3 30 0 80320 401600 32256512000
866	514829 165 60 262 2.00681200335 3.005763700988 6 8032 8032 48192 387078144
867	514994 414 60 262 0.1 3 30 0 80320 401600 32256512000
868	515408 165 60 262 2.00681200335 3.005763700988 6 8032 8032 48192 387078144
869	515573 414 60 262 0.1 3 30 0 80320 401600 32256512000
870	515987 165 60 262 2.00681200335 3.005763700988 6 7968 7968 47808 380934144
871	516152 414 60 262 0.1 3 30 0 79680 398400 31744512000
872	516566 165 60 262 2.00681200335 3.005763700988 6 7968 7968 47808 380934144
873	516731 414 60 262 0.1 3 30 0 79680 398400 31744512000
874	517145 165 60 262 2.00681200335 3.005763700988 6 7968 7968 47808 380934144
875	517310 414 60 262 0.1 3 30 0 79680 398400 31744512000
876	517724 165 60 262 2.00681200335 3.005763700988 6 7968 7968 47808 380934144
877	517889 414 60 262 0.1 3 30 0 79680 398400 31744512000
878	518303 165 60 262 2.00681200335 3.005763700988 6 7968 7968 47808 380934144
879	518468 414 60 262 0.1 3 30 0 79680 398400 31744512000
880	518882 165 60 262 2.00681200335 3.005763700988 6 7968 7968 47808 380934144
881	519047 414 60 262 0.1 3 30 0 79680 398400 31744512000
882	519461 165 60 262 2.00681200335 3.005763700988 6 7936 7936 47616 377880576
883	519626 414 60 262 0.1 3 30 0 79360 396800 31490048000
884	520040 165 60 262 2.00681200335 3.005763700988 6 7936 7936 47616 377880576
885	520205 414 60 262 0.1 3 30 0 79360 396800 31490048000
886	520619 165 60 262 2.00681200335 3.005763700988 6 7824 7824 46944 367289856
887	520784 414 60 262 0.1 3 30 0 78240 391200 30607488000
888	521198 165 60 262 2.00681200335 3.005763700988 6 7824 7824 46944 367289856
889	521363 414 60 262 0.1 3 30 0 78240 391200 30607488000
890	521777 165 60 262 2.00681200335 3.005763700988 6 7792 7792 46752 364291584
891	521942 414 60 262 0.1 3 30 0 77920 389600 30357632000
892	522356 165 60 262 2.00681200335 3.005763700988 6 7792 7792 46752 364291584
893	522521 414 60 262 0.1 3 30 0 77920 389600 30357632000
894	522935 165 60 262 2.00681200335 3.005763700988 6 7792 7792 46752 364291584
895	523100 414 60 262 0.1 3 30 0 77920 389600 30357632000
896	523514 159 62 264 2.00681200335 3.005763700988 6 954 954 5724 5460696
897	523673 159 63 265 2.00681200335 3.005763700988 6 946 946 5676 5369496
898	523832 165 64 266 2.00681200335 3.005763700988 6 7568 7568 45408 343647744
899	523997 556 64 269 0.1 4 40 0 75680 454080 34364774400
900	524553 165 64 266 2.00681200335 3.005763700988 6 7568 7568 45408 343647744
901	524718 556 64 269 0.1 4 40 0 75680 454080 34364774400
902	525274 186 105 266 2.00681200335 2.805346044206 5 0.005346044206 0.00681200335 0.030486425936 0.00018745834031507
903	525460 190 105 266 2.00681200335 2.805346044206 5 -0.001259299184 0.00681200335 0.005346044206 4.9818598701032e-05
904	525650 182 105 266 2.00681200335 2.805346044206 5 -0.00022302849733333 0.0007512409812 0.0011841797983667 1.0112559536805e-06
905	525832 195 105 266 2.00681200335 2.805346044206 5 0 0.00062965567103319 0.0021944231302614 1.2175459500608e-06
906	526027 552 269 269 0.1 4 40 0 0 0 0
907	526579 552 269 269 0.1 4 40 0 0 0 0
908	527131 552 269 269 0.1 4 40 0 0 0 0
909	527683 552 269 269 0.1 4 40 0 0 0 0
910	528235 552 269 269 0.1 4 40 0 0 0 0
911	528787 552 269 269 0.1 4 40 0 0 0 0
912	529339 552 269 269 0.1 4 40 0 0 0 0
913	529891 552 269 269 0.1 4 40 0 0 0 0
914	530443 552 269 269 0.1 4 40 0 0 0 0
915	530995 552 269 269 0.1 4 40 0 0 0 0
916	531547 552 269 269 0.1 4 40 0 0 0 0
917	532099 552 269 269 0.1 4 40 0 0 0 0
918	532651 552 269 269 0.1 4 40 0 0 0 0
919	533203 552 269 269 0.1 4 40 0 0 0 0
920	533755 552 269 269 0.1 4 40 0 0 0 0
921	534307 552 269 269 0.1 4 40 0 0 0 0
922	534859 552 269 269 0.1 4 40 0 0 0 0
923	535411 552 269 269 0.1 4 40 0 0 0 0
924	535963 552 269 269 0.1 4 40 0 0 0 0
925	536515 552 269 269 0.1 4 40 0 0 0 0
926	537067 552 269 269 0.1 4 40 0 0 0 0
927	537619 552 269 269 0.1 4 40 0 0 0 0
928	538171 552 269 269 0.1 4 40 0 0 0 0
929	538723 552 269 269 0.1 4 40 0 0 0 0
930	539275 552 269 269 0.1 4 40 0 0 0 0
931	539827 552 269 269 0.1 4 40 0 0 0 0
932	540379 552 269 269 0.1 4 40 0 0 0 0
933	540931 552 269 269 0.1 4 40 0 0 0 0
934	541483 552 269 269 0.1 4 40 0 0 0 0
935	542035 552 269 269 0.1 4 40 0 0 0 0
936	542587 552 269 269 0.1 4 40 0 0 0 0
937	543139 552 269 269 0.1 4 40 0 0 0 0
938	543691 552 269 269 0.1 4 40 0 0 0 0
939	544243 552 269 269 0.1 4 40 0 0 0 0
940	544795 552 269 269 0.1 4 40 0 0 0 0
941	545347 552 269 269 0.1 4 40 0 0 0 0
942	545899 552 269 269 0.1 4 40 0 0 0 0
943	546451 552 269 269 0.1 4 40 0 0 0 0
944	547003 552 269 269 0.1 4 40 0 0 0 0
945	547555 552 269 269 0.1 4 40 0 0 0 0
946	548107 552 269 269 0.1 4 40 0 0 0 0
947	548659 552 269 269 0.1 4 40 0 0 0 0
948	549211 552 269 269 0.1 4 40 0 0 0 0
949	549763 552 269 269 0.1 4 40 0 0 0 0
950	550315 552 269 269 0.1 4 40 0 0 0 0
951	550867 552 269 269 0.1 4 40 0 0 0 0
952	551419 552 269 269 0.1 4 40 0 0 0 0
953	551971 552 269 269 0.1 4 40 0 0 0 0
954	552523 552 269 269 0.1 4 40 0 0 0 0
955	553075 552 269 269 0.1 4 40 0 0 0 0
956	553627 552 269 269 0.1 4 40 0 0 0 0
957	554179 552 269 269 0.1 4 40 0 0 0 0
958	554731 552 269 269 0.1 4 40 0 0 0 0
959	555283 552 269 269 0.1 4 40 0 0 0 0
960	555835 552 269 269 0.1 4 40 0 0 0 0
961	556387 552 269 269 0.1 4 40 0 0 0 0
962	556939 552 269 269 0.1 4 40 0 0 0 0
963	557491 552 269 269 0.1 4 40 0 0 0 0
964	558043 552 269 269 0.1 4 40 0 0 0 0
965	558595 552 269 269 0.1 4 40 0 0 0 0
966	559147 552 269 269 0.1 4 40 0 0 0 0
967	559699 552 269 269 0.1 4 40 0 0 0 0
968	560251 552 269 269 0.1 4 40 0 0 0 0
969	560803 552 269 269 0.1 4 40 0 0 0 0
970	561355 552 269 269 0.1 4 40 0 0 0 0
971	561907 552 269 269 0.1 4 40 0 0 0 0
972	562459 552 269 269 0.1 4 40 0 0 0 0
973	563011 552 269 269 0.1 4 40 0 0 0 0
974	563563 552 269 269 0.1 4 40 0 0 0 0
975	564115 552 269 269 0.1 4 40 0 0 0 0
976	564667 552 269 269 0.1 4 40 0 0 0 0
977	565219 552 269 269 0.1 4 40 0 0 0 0
978	565771 552 269 269 0.1 4 40 0 0 0 0
979	566323 552 269 269 0.1 4 40 0 0 0 0
980	566875 552 269 269 0.1 4 40 0 0 0 0
981	567427 552 269 269 0.1 4 40 0 0 0 0
982	567979 552 269 269 0.1 4 40 0 0 0 0
983	568531 552 269 269 0.1 4 40 0 0 0 0
984	569083 552 269 269 0.1 4 40 0 0 0 0
985	569635 552 269 269 0.1 4 40 0 0 0 0
986	570187 552 269 269 0.1 4 40 0 0 0 0
987	570739 552 269 269 0.1 4 40 0 0 0 0
988	571291 552 269 269 0.1 4 40 0 0 0 0
989	571843 552 269 269 0.1 4 40 0 0 0 0
990	572395 552 269 269 0.1 4 40 0 0 0 0
991	572947 552 269 269 0.1 4 40 0 0 0 0
992	573499 552 269 269 0.1 4 40 0 0 0 0
993	574051 552 269 269 0.1 4 40 0 0 0 0
994	574603 552 269 269 0.1 4 40 0 0 0 0
995	575155 552 269 269 0.1 4 40 0 0 0 0
996	575707 552 269 269 0.1 4 40 0 0 0 0
997	576259 552 269 269 0.1 4 40 0 0 0 0
998	576811 552 269 269 0.1 4 40 0 0 0 0
999	577363 552 269 269 0.1 4 40 0 0 0 0
1000	577915 592 269 269 0.1 4 40 0 0 0 0
1001	578507 592 269 269 0.1 4 40 0 0 0 0
1002	579099 592 269 269 0.1 4 40 0 0 0 0
1003	579691 592 269 269 0.1 4 40 0 0 0 0
1004	580283 592 269 269 0.1 4 40 0 0 0 0
1005	580875 592 269 269 0.1 4 40 0 0 0 0
1006	581467 592 269 269 0.1 4 40 0 0 0 0
1007	582059 592 269 269 0.1 4 40 0 0 0 0
1008	582651 592 269 269 0.1 4 40 0 0 0 0
1009	583243 592 269 269 0.1 4 40 0 0 0 0
1010	583835 592 269 269 0.1 4 40 0 0 0 0
1011	584427 592 269 269 0.1 4 40 0 0 0 0
1012	585019 592 269 269 0.1 4 40 0 0 0 0
1013	585611 592 269 269 0.1 4 40 0 0 0 0
1014	586203 592 269 269 0.1 4 40 0 0 0 0
1015	586795 592 269 269 0.1 4 40 0 0 0 0
1016	587387 592 269 269 0.1 4 40 0 0 0 0
1017	587979 592 269 269 0.1 4 40 0 0 0 0
1018	588571 592 269 269 0.1 4 40 0 0 0 0
1019	589163 592 269 269 0.1 4 40 0 0 0 0
1020	589755 592 269 269 0.1 4 40 0 0 0 0
1021	590347 592 269 269 0.1 4 40 0 0 0 0
1022	590939 592 269 269 0.1 4 40 0 0 0 0
1023	591531 592 269 269 0.1 4 40 0 0 0 0
1024	592123 592 269 269 0.1 4 40 0 0 0 0
1025	592715 592 269 269 0.1 4 40 0 0 0 0
1026	593307 592 269 269 0.1 4 40 0 0 0 0
1027	593899 592 269 269 0.1 4 40 0 0 0 0
1028	594491 592 269 269 0.1 4 40 0 0 0 0
1029	595083 592 269 269 0.1 4 40 0 0 0 0
1030	595675 592 269 269 0.1 4 40 0 0 0 0
1031	596267 592 269 269 0.1 4 40 0 0 0 0
1032	596859 592 269 269 0.1 4 40 0 0 0 0
1033	597451 592 269 269 0.1 4 40 0 0 0 0
1034	598043 592 269 269 0.1 4 40 0 0 0 0
1035	598635 592 269 269 0.1 4 40 0 0 0 0
1036	599227 592 269 269 0.1 4 40 0 0 0 0
1037	599819 592 269 269 0.1 4 40 0 0 0 0
1038	600411 592 269 269 0.1 4 40 0 0 0 0
1039	601003 592 269 269 0.1 4 40 0 0 0 0
1040	601595 592 269 269 0.1 4 40 0 0 0 0
1041	602187 592 269 269 0.1 4 40 0 0 0 0
1042	602779 592 269 269 0.1 4 40 0 0 0 0
1043	603371 592 269 269 0.1 4 40 0 0 0 0
1044	603963 592 269 269 0.1 4 40 0 0 0 0
1045	604555 592 269 269 0.1 4 40 0 0 0 0
1046	605147 592 269 269 0.1 4 40 0 0 0 0
1047	605739 592 269 269 0.1 4 40 0 0 0 0
1048	606331 592 269 269 0.1 4 40 0 0 0 0
1049	606923 592 269 269 0.1 4 40 0 0 0 0
1050	607515 592 269 269 0.1 4 40 0 0 0 0
1051	608107 592 269 269 0.1 4 40 0 0 0 0
1052	608699 592 269 269 0.1 4 40 0 0 0 0
1053	609291 592 269 269 0.1 4 40 0 0 0 0
1054	609883 592 269 269 0.1 4 40 0 0 0 0
1055	610475 592 269 269 0.1 4 40 0 0 0 0
1056	611067 592 269 269 0.1 4 40 0 0 0 0
1057	611659 592 269 269 0.1 4 40 0 0 0 0
1058	612251 592 269 269 0.1 4 40 0 0 0 0
1059	612843 592 269 269 0.1 4 40 0 0 0 0
1060	613435 592 269 269 0.1 4 40 0 0 0 0
1061	614027 592 269 269 0.1 4 40 0 0 0 0
1062	614619 592 269 269 0.1 4 40 0 0 0 0
1063	615211 592 269 269 0.1 4 40 0 0 0 0
1064	615803 592 269 269 0.1 4 40 0 0 0 0
1065	616395 592 269 269 0.1 4 40 0 0 0 0
1066	616987 592 269 269 0.1 4 40 0 0 0 0
1067	617579 592 269 269 0.1 4 40 0 0 0 0
1068	618171 592 269 269 0.1 4 40 0 0 0 0
1069	618763 592 269 269 0.1 4 40 0 0 0 0
1070	619355 592 269 269 0.1 4 40 0 0 0 0
1071	619947 592 269 269 0.1 4 40 0 0 0 0
1072	620539 592 269 269 0.1 4 40 0 0 0 0
1073	621131 592 269 269 0.1 4 40 0 0 0 0
1074	621723 592 269 269 0.1 4 40 0 0 0 0
1075	622315 592 269 269 0.1 4 40 0 0 0 0
1076	622907 592 269 269 0.1 4 40 0 0 0 0
1077	623499 592 269 269 0.1 4 40 0 0 0 0
1078	624091 592 269 269 0.1 4 40 0 0 0 0
1079	624683 592 269 269 0.1 4 40 0 0 0 0
1080	625275 592 269 269 0.1 4 40 0 0 0 0
1081	625867 592 269 269 0.1 4 40 0 0 0 0
1082	626459 592 269 269 0.1 4 40 0 0 0 0
1083	627051 592 269 269 0.1 4 40 0 0 0 0
1084	627643 592 269 269 0.1 4 40 0 0 0 0
1085	628235 592 269 269 0.1 4 40 0 0 0 0
1086	628827 592 269 269 0.1 4 40 0 0 0 0
1087	629419 592 269 269 0.1 4 40 0 0 0 0
1088	630011 592 269 269 0.1 4 40 0 0 0 0
1089	630603 592 269 269 0.1 4 40 0 0 0 0
1090	631195 592 269 269 0.1 4 40 0 0 0 0
1091	631787 592 269 269 0.1 4 40 0 0 0 0
1092	632379 592 269 269 0.1 4 40 0 0 0 0
1093	632971 592 269 269 0.1 4 40 0 0 0 0
1094	633563 592 269 269 0.1 4 40 0 0 0 0
1095	634155 592 269 269 0.1 4 40 0 0 0 0
1096	634747 592 269 269 0.1 4 40 0 0 0 0
1097	635339 592 269 269 0.1 4 40 0 0 0 0
1098	635931 592 269 269 0.1 4 40 0 0 0 0
1099	636523 592 269 269 0.1 4 40 0 0 0 0
1100	637115 592 269 269 0.1 4 40 0 0 0 0
1101	637707 592 269 269 0.1 4 40 0 0 0 0
1102	638299 592 269 269 0.1 4 40 0 0 0 0
1103	638891 592 269 269 0.1 4 40 0 0 0 0
1104	639483 592 269 269 0.1 4 40 0 0 0 0
1105	640075 592 269 269 0.1 4 40 0 0 0 0
1106	640667 592 269 269 0.1 4 40 0 0 0 0
1107	641259 592 269 269 0.1 4 40 0 0 0 0
1108	641851 592 269 269 0.1 4 40 0 0 0 0
1109	642443 592 269 269 0.1 4 40 0 0 0 0
1110	643035 592 269 269 0.1 4 40 0 0 0 0
1111	643627 592 269 269 0.1 4 40 0 0 0 0
1112	644219 592 269 269 0.1 4 40 0 0 0 0
1113	644811 592 269 269 0.1 4 40 0 0 0 0
1114	645403 592 269 269 0.1 4 40 0 0 0 0
1115	645995 592 269 269 0.1 4 40 0 0 0 0
1116	646587 592 269 269 0.1 4 40 0 0 0 0
1117	647179 592 269 269 0.1 4 40 0 0 0 0
1118	647771 592 269 269 0.1 4 40 0 0 0 0
1119	648363 592 269 269 0.1 4 40 0 0 0 0
1120	648955 592 269 269 0.1 4 40 0 0 0 0
1121	649547 592 269 269 0.1 4 40 0 0 0 0
1122	650139 592 269 269 0.1 4 40 0 0 0 0
1123	650731 592 269 269 0.1 4 40 0 0 0 0
1124	651323 592 269 269 0.1 4 40 0 0 0 0
1125	651915 592 269 269 0.1 4 40 0 0 0 0
1126	652507 592 269 269 0.1 4 40 0 0 0 0
1127	653099 592 269 269 0.1 4 40 0 0 0 0
1128	653691 592 269 269 0.1 4 40 0 0 0 0
1129	654283 592 269 269 0.1 4 40 0 0 0 0
1130	654875 592 269 269 0.1 4 40 0 0 0 0
1131	655467 592 269 269 0.1 4 40 0 0 0 0
1132	656059 592 269 269 0.1 4 40 0 0 0 0
1133	656651 592 269 269 0.1 4 40 0 0 0 0
1134	657243 592 269 269 0.1 4 40 0 0 0 0
1135	657835 592 269 269 0.1 4 40 0 0 0 0
1136	658427 592 269 269 0.1 4 40 0 0 0 0
1137	659019 592 269 269 0.1 4 40 0 0 0 0
1138	659611 592 269 269 0.1 4 40 0 0 0 0
1139	660203 592 269 269 0.1 4 40 0 0 0 0
1140	660795 592 269 269 0.1 4 40 0 0 0 0
1141	661387 592 269 269 0.1 4 40 0 0 0 0
1142	661979 592 269 269 0.1 4 40 0 0 0 0
1143	662571 592 269 269 0.1 4 40 0 0 0 0
1144	663163 592 269 269 0.1 4 40 0 0 0 0
1145	663755 592 269 269 0.1 4 40 0 0 0 0
1146	664347 592 269 269 0.1 4 40 0 0 0 0
1147	664939 592 269 269 0.1 4 40 0 0 0 0
1148	665531 592 269 269 0.1 4 40 0 0 0 0
1149	666123 592 269 269 0.1 4 40 0 0 0 0
1150	666715 592 269 269 0.1 4 40 0 0 0 0
1151	667307 592 269 269 0.1 4 40 0 0 0 0
1152	667899 592 269 269 0.1 4 40 0 0 0 0
1153	668491 592 269 269 0.1 4 40 0 0 0 0
1154	669083 592 269 269 0.1 4 40 0 0 0 0
1155	669675 592 269 269 0.1 4 40 0 0 0 0
1156	670267 592 269 269 0.1 4 40 0 0 0 0
1157	670859 592 269 269 0.1 4 40 0 0 0 0
1158	671451 592 269 269 0.1 4 40 0 0 0 0
1159	672043 592 269 269 0.1 4 40 0 0 0 0
1160	672635 592 269 269 0.1 4 40 0 0 0 0
1161	673227 592 269 269 0.1 4 40 0 0 0 0
1162	673819 592 269 269 0.1 4 40 0 0 0 0
1163	674411 592 269 269 0.1 4 40 0 0 0 0
1164	675003 592 269 269 0.1 4 40 0 0 0 0
1165	675595 592 269 269 0.1 4 40 0 0 0 0
1166	676187 592 269 269 0.1 4 40 0 0 0 0
1167	676779 592 269 269 0.1 4 40 0 0 0 0
1168	677371 592 269 269 0.1 4 40 0 0 0 0
1169	677963 592 269 269 0.1 4 40 0 0 0 0
1170	678555 592 269 269 0.1 4 40 0 0 0 0
1171	679147 592 269 269 0.1 4 40 0 0 0 0
1172	679739 592 269 269 0.1 4 40 0 0 0 0
1173	680331 592 269 269 0.1 4 40 0 0 0 0
1174	680923 592 269 269 0.1 4 40 0 0 0 0
1175	681515 592 269 269 0.1 4 40 0 0 0 0
1176	682107 592 269 269 0.1 4 40 0 0 0 0
1177	682699 592 269 269 0.1 4 40 0 0 0 0
1178	683291 592 269 269 0.1 4 40 0 0 0 0
1179	683883 592 269 269 0.1 4 40 0 0 0 0
1180	684475 592 269 269 0.1 4 40 0 0 0 0
1181	685067 592 269 269 0.1 4 40 0 0 0 0
1182	685659 592 269 269 0.1 4 40 0 0 0 0
1183	686251 592 269 269 0.1 4 40 0 0 0 0
1184	686843 592 269 269 0.1 4 40 0 0 0 0
1185	687435 592 269 269 0.1 4 40 0 0 0 0
1186	688027 592 269 269 0.1 4 40 0 0 0 0
1187	688619 592 269 269 0.1 4 40 0 0 0 0
1188	689211 592 269 269 0.1 4 40 0 0 0 0
1189	689803 592 269 269 0.1 4 40 0 0 0 0
1190	690395 592 269 269 0.1 4 40 0 0 0 0
1191	690987 592 269 269 0.1 4 40 0 0 0 0
1192	691579 592 269 269 0.1 4 40 0 0 0 0
1193	692171 592 269 269 0.1 4 40 0 0 0 0
1194	692763 592 269 269 0.1 4 40 0 0 0 0
1195	693355 592 269 269 0.1 4 40 0 0 0 0
1196	693947 592 269 269 0.1 4 40 0 0 0 0
1197	694539 592 269 269 0.1 4 40 0 0 0 0
1198	695131 592 269 269 0.1 4 40 0 0 0 0
1199	695723 592 269 269 0.1 4 40 0 0 0 0
1200	696315 592 269 269 0.1 4 40 0 0 0 0
1201	696907 592 269 269 0.1 4 40 0 0 0 0
1202	697499 592 269 269 0.1 4 40 0 0 0 0
1203	698091 592 269 269 0.1 4 40 0 0 0 0
1204	698683 592 269 269 0.1 4 40 0 0 0 0
1205	699275 592 269 269 0.1 4 40 0 0 0 0
1206	699867 592 269 269 0.1 4 40 0 0 0 0
1207	700459 592 269 269 0.1 4 40 0 0 0 0
1208	701051 592 269 269 0.1 4 40 0 0 0 0
1209	701643 592 269 269 0.1 4 40 0 0 0 0
1210	702235 592 269 269 0.1 4 40 0 0 0 0
1211	702827 592 269 269 0.1 4 40 0 0 0 0
1212	703419 592 269 269 0.1 4 40 0 0 0 0
1213	704011 592 269 269 0.1 4 40 0 0 0 0
1214	704603 592 269 269 0.1 4 40 0 0 0 0
1215	705195 592 269 269 0.1 4 40 0 0 0 0
1216	705787 592 269 269 0.1 4 40 0 0 0 0
1217	706379 592 269 269 0.1 4 40 0 0 0 0
1218	706971 592 269 269 0.1 4 40 0 0 0 0
1219	707563 592 269 269 0.1 4 40 0 0 0 0
1220	708155 592 269 269 0.1 4 40 0 0 0 0
1221	708747 592 269 269 0.1 4 40 0 0 0 0
1222	709339 592 269 269 0.1 4 40 0 0 0 0
1223	709931 592 269 269 0.1 4 40 0 0 0 0
1224	710523 592 269 269 0.1 4 40 0 0 0 0
1225	711115 592 269 269 0.1 4 40 0 0 0 0

