version 3
run General-0-20250523-21:28:01-18629
attr configname General
attr datetime 20250523-21:28:01
attr datetimef 20250523-212801
attr experiment General
attr inifile omnetpp.ini
attr iterationvars ""
attr iterationvarsd ""
attr iterationvarsf ""
attr measurement ""
attr network simpleTsn
attr processid 18629
attr repetition 0
attr replication #0
attr resultdir results
attr runnumber 0
attr seedset 0
config image-path ../../../inet/images
config sim-time-limit 4s
config description "General configuration"
config network simpleTsn
config **.displayGateSchedules false
config **.gateScheduleVisualizer.height 14
config **.gateScheduleVisualizer.placementHint "\"bottom\""
config *.scenarioManager.script "xmldoc(\"scenario.xml\")"
config *.histogramContainer.histograms "{Uplink: \"../../../deterministic6g_data/PD-Wireless-5G-1/s1-UL_wall.xml\", Downlink: \"../../../deterministic6g_data/PD-Wireless-5G-1/s10-DL_wall.xml\"}"
config *.detCom1.delayConfig "xmldoc(\"delays1.xml\")"
config *.detCom2.delayConfig "xmldoc(\"delays2.xml\")"
config *.*.eth[*].bitrate 100Mbps
config *.*.*.eth[*].bitrate 100Mbps
config network simpleTsn
config *.device1.numApps 1
config *.device1.app[0].typename SimpleUdpSourceApp
config *.device1.app[0].display-name stream1
config *.device1.app[0].streamId "\"1\""
config *.device1.app[0].max_latency 500
config *.device1.app[0].priority 4
config *.device1.app[0].gamma 0
config *.device1.app[0].max_jitter 10
config *.device1.app[0].io.destAddress "\"device2\""
config *.device1.app[0].io.destPort 1001
config *.device1.app[0].source.packetLength "1000B - 54B"
config *.device1.app[0].source.productionInterval 20ms
config *.device1.app[0].source.initialProductionOffset 1s
config *.device2.numApps 2
config *.device2.app[0].typename SimpleUdpSinkApp
config *.device2.app[0].io.localPort 1001
config *.device2.app[1].typename SimpleUdpSinkApp
config *.device2.app[1].io.localPort 1002
config *.device3.numApps 1
config *.device3.app[0].typename SimpleUdpSourceApp
config *.device3.app[0].display-name stream2
config *.device3.app[0].streamId "\"2\""
config *.device3.app[0].max_latency 300.0
config *.device3.app[0].priority 4
config *.device3.app[0].gamma 0
config *.device3.app[0].max_jitter 10
config *.device3.app[0].io.destAddress "\"device2\""
config *.device3.app[0].io.destPort 1002
config *.device3.app[0].source.packetLength "1000B - 54B"
config *.device3.app[0].source.productionInterval 100ms
config *.device3.app[0].source.initialProductionOffset 30s
config *.device1.app[0].source.streamingEnabled false
config *.device3.app[0].source.streamingEnabled false
config **.streamIdentifier.identifier.mapping "[{stream: \"stream1\", packetFilter: expr(udp.destPort == 1001)}, \n\t\t\t\t\t\t\t\t\t\t  {stream: \"stream2\", packetFilter: expr(udp.destPort == 1002)}]"
config **.streamCoder.*.mapping "[{stream: \"stream1\", pcp: 4, vlan: 1},\n\t\t\t\t\t\t\t{stream: \"stream2\", pcp: 4, vlan: 1}]"
config *.bridge*.bridging.directionReverser.reverser.excludeEncapsulationProtocols "[\"ieee8021qctag\"]"
config *.bridge*.ieee8021q.qTagHeaderChecker.vlanIdFilter [1,5]
config *.bridge*.eth[*].macLayer.queue.*[0].display-name "best effort"
config *.bridge*.eth[*].macLayer.queue.*[1].display-name video
config *.bridge*.eth[*].macLayer.queue.*[2].display-name control
config *.bridge*.eth[*].macLayer.queue.*[3].display-name p3
config *.bridge*.eth[*].macLayer.queue.*[4].display-name p4
config *.bridge*.eth[*].macLayer.queue.*[5].display-name p5
config *.bridge*.eth[*].macLayer.queue.*[6].display-name p6
config *.bridge*.eth[*].macLayer.queue.*[7].display-name p7
config *.macForwardingTableConfigurator.typename ""
config **.bridge1.macTable.forwardingTable "[{address: \"device2\", vlan: 1, interface: \"eth1\"}]"
config **.bridge2.macTable.forwardingTable "[{address: \"device2\", vlan: 1, interface: \"eth0\"}]"
config **.bridge3.macTable.forwardingTable "[{address: \"device2\", vlan: 1, interface: \"eth2\"}]"
config network simpleTsn
config *.tsnController.gateScheduleConfigurator.typename wTSNGateScheduleConfigurator
config *.tsnController.gateScheduleConfigurator.gateCycleDuration 1ms
config *.tsnController.gateScheduleConfigurator.configuration "[\n\t{name:\"stream1\", pcp:4, gateIndex:4, application:\"app[0]\", source:\"device1\", destination:\"device2\", packetLength: 1000B - 54B, packetInterval:20ms,  gamma:1, maxJitter:5ms, maxLatency: 500us, flowStartTime:3s, flowEndTime:5s},\n\t{name:\"stream2\", pcp:4, gateIndex:4, application:\"app[0]\", source:\"device3\", destination:\"device2\", packetLength: 1000B - 54B, packetInterval:100ms, gamma:1, maxJitter:5ms, maxLatency: 300us, flowStartTime:6s, flowEndTime:100s}]"

vector 0 simpleTsn.bridge1.eth[0].phyLayer.interFrameGapInserter interpacketGap:vector ETV
attr interpolationmode sample-hold
attr recordingmode vector
attr source "count(interpacketGapStarted) - count(interpacketGapEnded)"
attr title "interpacket gap state"
attr type int
vector 1 simpleTsn.bridge1.eth[0].phyLayer.transmitter transmitting:vector ETV
attr interpolationmode sample-hold
attr recordingmode vector
attr source "count(transmissionStarted) - count(transmissionEnded)"
attr title "transmitting state"
attr type int
vector 2 simpleTsn.bridge1.eth[1].phyLayer.interFrameGapInserter interpacketGap:vector ETV
attr interpolationmode sample-hold
attr recordingmode vector
attr source "count(interpacketGapStarted) - count(interpacketGapEnded)"
attr title "interpacket gap state"
attr type int
vector 3 simpleTsn.bridge1.eth[1].phyLayer.transmitter transmitting:vector ETV
attr interpolationmode sample-hold
attr recordingmode vector
attr source "count(transmissionStarted) - count(transmissionEnded)"
attr title "transmitting state"
attr type int
vector 4 simpleTsn.bridge1.eth[2].phyLayer.interFrameGapInserter interpacketGap:vector ETV
attr interpolationmode sample-hold
attr recordingmode vector
attr source "count(interpacketGapStarted) - count(interpacketGapEnded)"
attr title "interpacket gap state"
attr type int
vector 5 simpleTsn.bridge1.eth[2].phyLayer.transmitter transmitting:vector ETV
attr interpolationmode sample-hold
attr recordingmode vector
attr source "count(transmissionStarted) - count(transmissionEnded)"
attr title "transmitting state"
attr type int
vector 6 simpleTsn.bridge2.eth[0].phyLayer.interFrameGapInserter interpacketGap:vector ETV
attr interpolationmode sample-hold
attr recordingmode vector
attr source "count(interpacketGapStarted) - count(interpacketGapEnded)"
attr title "interpacket gap state"
attr type int
vector 7 simpleTsn.bridge2.eth[0].phyLayer.transmitter transmitting:vector ETV
attr interpolationmode sample-hold
attr recordingmode vector
attr source "count(transmissionStarted) - count(transmissionEnded)"
attr title "transmitting state"
attr type int
vector 8 simpleTsn.bridge2.eth[1].phyLayer.interFrameGapInserter interpacketGap:vector ETV
attr interpolationmode sample-hold
attr recordingmode vector
attr source "count(interpacketGapStarted) - count(interpacketGapEnded)"
attr title "interpacket gap state"
attr type int
vector 9 simpleTsn.bridge2.eth[1].phyLayer.transmitter transmitting:vector ETV
attr interpolationmode sample-hold
attr recordingmode vector
attr source "count(transmissionStarted) - count(transmissionEnded)"
attr title "transmitting state"
attr type int
vector 10 simpleTsn.bridge2.eth[2].phyLayer.interFrameGapInserter interpacketGap:vector ETV
attr interpolationmode sample-hold
attr recordingmode vector
attr source "count(interpacketGapStarted) - count(interpacketGapEnded)"
attr title "interpacket gap state"
attr type int
vector 11 simpleTsn.bridge2.eth[2].phyLayer.transmitter transmitting:vector ETV
attr interpolationmode sample-hold
attr recordingmode vector
attr source "count(transmissionStarted) - count(transmissionEnded)"
attr title "transmitting state"
attr type int
vector 12 simpleTsn.bridge3.eth[0].phyLayer.interFrameGapInserter interpacketGap:vector ETV
attr interpolationmode sample-hold
attr recordingmode vector
attr source "count(interpacketGapStarted) - count(interpacketGapEnded)"
attr title "interpacket gap state"
attr type int
vector 13 simpleTsn.bridge3.eth[0].phyLayer.transmitter transmitting:vector ETV
attr interpolationmode sample-hold
attr recordingmode vector
attr source "count(transmissionStarted) - count(transmissionEnded)"
attr title "transmitting state"
attr type int
vector 14 simpleTsn.bridge3.eth[1].phyLayer.interFrameGapInserter interpacketGap:vector ETV
attr interpolationmode sample-hold
attr recordingmode vector
attr source "count(interpacketGapStarted) - count(interpacketGapEnded)"
attr title "interpacket gap state"
attr type int
vector 15 simpleTsn.bridge3.eth[1].phyLayer.transmitter transmitting:vector ETV
attr interpolationmode sample-hold
attr recordingmode vector
attr source "count(transmissionStarted) - count(transmissionEnded)"
attr title "transmitting state"
attr type int
vector 16 simpleTsn.bridge3.eth[2].phyLayer.interFrameGapInserter interpacketGap:vector ETV
attr interpolationmode sample-hold
attr recordingmode vector
attr source "count(interpacketGapStarted) - count(interpacketGapEnded)"
attr title "interpacket gap state"
attr type int
vector 17 simpleTsn.bridge3.eth[2].phyLayer.transmitter transmitting:vector ETV
attr interpolationmode sample-hold
attr recordingmode vector
attr source "count(transmissionStarted) - count(transmissionEnded)"
attr title "transmitting state"
attr type int
vector 18 simpleTsn.device1.eth[0].phyLayer.interFrameGapInserter interpacketGap:vector ETV
attr interpolationmode sample-hold
attr recordingmode vector
attr source "count(interpacketGapStarted) - count(interpacketGapEnded)"
attr title "interpacket gap state"
attr type int
vector 19 simpleTsn.device1.eth[0].phyLayer.transmitter transmitting:vector ETV
attr interpolationmode sample-hold
attr recordingmode vector
attr source "count(transmissionStarted) - count(transmissionEnded)"
attr title "transmitting state"
attr type int
vector 20 simpleTsn.device1.udp passedUpPk:vector(count) ETV
attr interpolationmode none
attr recordingmode vector(count)
attr source packetSentToUpper
attr title "packets passed up, count"
vector 21 simpleTsn.device1.udp droppedPkWrongPort:vector(count) ETV
attr interpolationmode none
attr recordingmode vector(count)
attr source packetDropReasonIsNoPortFound(packetDropped)
attr title "packets dropped (wrong port), count"
vector 22 simpleTsn.device1.udp droppedPkBadChecksum:vector(count) ETV
attr interpolationmode none
attr recordingmode vector(count)
attr source packetDropReasonIsIncorrectlyReceived(packetDropped)
attr title "packets dropped (checksum error), count"
vector 23 simpleTsn.device2.eth[0].phyLayer.interFrameGapInserter interpacketGap:vector ETV
attr interpolationmode sample-hold
attr recordingmode vector
attr source "count(interpacketGapStarted) - count(interpacketGapEnded)"
attr title "interpacket gap state"
attr type int
vector 24 simpleTsn.device2.eth[0].phyLayer.transmitter transmitting:vector ETV
attr interpolationmode sample-hold
attr recordingmode vector
attr source "count(transmissionStarted) - count(transmissionEnded)"
attr title "transmitting state"
attr type int
vector 25 simpleTsn.device2.udp passedUpPk:vector(count) ETV
attr interpolationmode none
attr recordingmode vector(count)
attr source packetSentToUpper
attr title "packets passed up, count"
vector 26 simpleTsn.device2.udp droppedPkWrongPort:vector(count) ETV
attr interpolationmode none
attr recordingmode vector(count)
attr source packetDropReasonIsNoPortFound(packetDropped)
attr title "packets dropped (wrong port), count"
vector 27 simpleTsn.device2.udp droppedPkBadChecksum:vector(count) ETV
attr interpolationmode none
attr recordingmode vector(count)
attr source packetDropReasonIsIncorrectlyReceived(packetDropped)
attr title "packets dropped (checksum error), count"
vector 28 simpleTsn.device3.eth[0].phyLayer.interFrameGapInserter interpacketGap:vector ETV
attr interpolationmode sample-hold
attr recordingmode vector
attr source "count(interpacketGapStarted) - count(interpacketGapEnded)"
attr title "interpacket gap state"
attr type int
vector 29 simpleTsn.device3.eth[0].phyLayer.transmitter transmitting:vector ETV
attr interpolationmode sample-hold
attr recordingmode vector
attr source "count(transmissionStarted) - count(transmissionEnded)"
attr title "transmitting state"
attr type int
vector 30 simpleTsn.device3.udp passedUpPk:vector(count) ETV
attr interpolationmode none
attr recordingmode vector(count)
attr source packetSentToUpper
attr title "packets passed up, count"
vector 31 simpleTsn.device3.udp droppedPkWrongPort:vector(count) ETV
attr interpolationmode none
attr recordingmode vector(count)
attr source packetDropReasonIsNoPortFound(packetDropped)
attr title "packets dropped (wrong port), count"
vector 32 simpleTsn.device3.udp droppedPkBadChecksum:vector(count) ETV
attr interpolationmode none
attr recordingmode vector(count)
attr source packetDropReasonIsIncorrectlyReceived(packetDropped)
attr title "packets dropped (checksum error), count"
vector 33 simpleTsn.detCom1.dstt[0].eth[0].phyLayer.interFrameGapInserter interpacketGap:vector ETV
attr interpolationmode sample-hold
attr recordingmode vector
attr source "count(interpacketGapStarted) - count(interpacketGapEnded)"
attr title "interpacket gap state"
attr type int
vector 34 simpleTsn.detCom1.dstt[0].eth[0].phyLayer.transmitter transmitting:vector ETV
attr interpolationmode sample-hold
attr recordingmode vector
attr source "count(transmissionStarted) - count(transmissionEnded)"
attr title "transmitting state"
attr type int
vector 35 simpleTsn.detCom1.dstt[0].tt[0].phyLayer.interFrameGapInserter interpacketGap:vector ETV
attr interpolationmode sample-hold
attr recordingmode vector
attr source "count(interpacketGapStarted) - count(interpacketGapEnded)"
attr title "interpacket gap state"
attr type int
vector 36 simpleTsn.detCom1.dstt[0].tt[0].phyLayer.transmitter transmitting:vector ETV
attr interpolationmode sample-hold
attr recordingmode vector
attr source "count(transmissionStarted) - count(transmissionEnded)"
attr title "transmitting state"
attr type int
vector 37 simpleTsn.detCom1.nwtt.eth[0].phyLayer.interFrameGapInserter interpacketGap:vector ETV
attr interpolationmode sample-hold
attr recordingmode vector
attr source "count(interpacketGapStarted) - count(interpacketGapEnded)"
attr title "interpacket gap state"
attr type int
vector 38 simpleTsn.detCom1.nwtt.eth[0].phyLayer.transmitter transmitting:vector ETV
attr interpolationmode sample-hold
attr recordingmode vector
attr source "count(transmissionStarted) - count(transmissionEnded)"
attr title "transmitting state"
attr type int
vector 39 simpleTsn.detCom1.nwtt.tt[0].phyLayer.interFrameGapInserter interpacketGap:vector ETV
attr interpolationmode sample-hold
attr recordingmode vector
attr source "count(interpacketGapStarted) - count(interpacketGapEnded)"
attr title "interpacket gap state"
attr type int
vector 40 simpleTsn.detCom1.nwtt.tt[0].phyLayer.transmitter transmitting:vector ETV
attr interpolationmode sample-hold
attr recordingmode vector
attr source "count(transmissionStarted) - count(transmissionEnded)"
attr title "transmitting state"
attr type int
vector 41 simpleTsn.detCom2.dstt[0].eth[0].phyLayer.interFrameGapInserter interpacketGap:vector ETV
attr interpolationmode sample-hold
attr recordingmode vector
attr source "count(interpacketGapStarted) - count(interpacketGapEnded)"
attr title "interpacket gap state"
attr type int
vector 42 simpleTsn.detCom2.dstt[0].eth[0].phyLayer.transmitter transmitting:vector ETV
attr interpolationmode sample-hold
attr recordingmode vector
attr source "count(transmissionStarted) - count(transmissionEnded)"
attr title "transmitting state"
attr type int
vector 43 simpleTsn.detCom2.dstt[0].tt[0].phyLayer.interFrameGapInserter interpacketGap:vector ETV
attr interpolationmode sample-hold
attr recordingmode vector
attr source "count(interpacketGapStarted) - count(interpacketGapEnded)"
attr title "interpacket gap state"
attr type int
vector 44 simpleTsn.detCom2.dstt[0].tt[0].phyLayer.transmitter transmitting:vector ETV
attr interpolationmode sample-hold
attr recordingmode vector
attr source "count(transmissionStarted) - count(transmissionEnded)"
attr title "transmitting state"
attr type int
vector 45 simpleTsn.detCom2.nwtt.eth[0].phyLayer.interFrameGapInserter interpacketGap:vector ETV
attr interpolationmode sample-hold
attr recordingmode vector
attr source "count(interpacketGapStarted) - count(interpacketGapEnded)"
attr title "interpacket gap state"
attr type int
vector 46 simpleTsn.detCom2.nwtt.eth[0].phyLayer.transmitter transmitting:vector ETV
attr interpolationmode sample-hold
attr recordingmode vector
attr source "count(transmissionStarted) - count(transmissionEnded)"
attr title "transmitting state"
attr type int
vector 47 simpleTsn.detCom2.nwtt.tt[0].phyLayer.interFrameGapInserter interpacketGap:vector ETV
attr interpolationmode sample-hold
attr recordingmode vector
attr source "count(interpacketGapStarted) - count(interpacketGapEnded)"
attr title "interpacket gap state"
attr type int
vector 48 simpleTsn.detCom2.nwtt.tt[0].phyLayer.transmitter transmitting:vector ETV
attr interpolationmode sample-hold
attr recordingmode vector
attr source "count(transmissionStarted) - count(transmissionEnded)"
attr title "transmitting state"
attr type int
vector 49 simpleTsn.bridge1.eth[0].macLayer.queue.transmissionGate[0] gateState:vector ETV
attr enum CLOSED,OPEN
attr interpolationmode sample-hold
attr moduledisplaypath "simpleTsn.bridge1.eth[0].macLayer.queue.best effort"
attr recordingmode vector
attr source gateStateChanged
attr title "gate state"
attr type enum
vector 50 simpleTsn.bridge1.eth[0].macLayer.queue.transmissionGate[0] guardBandState:vector ETV
attr enum ON,OFF
attr interpolationmode sample-hold
attr moduledisplaypath "simpleTsn.bridge1.eth[0].macLayer.queue.best effort"
attr recordingmode vector
attr source guardBandStateChanged
attr title "guard band state"
attr type enum
vector 51 simpleTsn.bridge1.eth[0].macLayer.queue.transmissionGate[1] gateState:vector ETV
attr enum CLOSED,OPEN
attr interpolationmode sample-hold
attr moduledisplaypath simpleTsn.bridge1.eth[0].macLayer.queue.video
attr recordingmode vector
attr source gateStateChanged
attr title "gate state"
attr type enum
vector 52 simpleTsn.bridge1.eth[0].macLayer.queue.transmissionGate[1] guardBandState:vector ETV
attr enum ON,OFF
attr interpolationmode sample-hold
attr moduledisplaypath simpleTsn.bridge1.eth[0].macLayer.queue.video
attr recordingmode vector
attr source guardBandStateChanged
attr title "guard band state"
attr type enum
vector 53 simpleTsn.bridge1.eth[0].macLayer.queue.transmissionGate[2] gateState:vector ETV
attr enum CLOSED,OPEN
attr interpolationmode sample-hold
attr moduledisplaypath simpleTsn.bridge1.eth[0].macLayer.queue.control
attr recordingmode vector
attr source gateStateChanged
attr title "gate state"
attr type enum
vector 54 simpleTsn.bridge1.eth[0].macLayer.queue.transmissionGate[2] guardBandState:vector ETV
attr enum ON,OFF
attr interpolationmode sample-hold
attr moduledisplaypath simpleTsn.bridge1.eth[0].macLayer.queue.control
attr recordingmode vector
attr source guardBandStateChanged
attr title "guard band state"
attr type enum
vector 55 simpleTsn.bridge1.eth[0].macLayer.queue.transmissionGate[3] gateState:vector ETV
attr enum CLOSED,OPEN
attr interpolationmode sample-hold
attr moduledisplaypath simpleTsn.bridge1.eth[0].macLayer.queue.p3
attr recordingmode vector
attr source gateStateChanged
attr title "gate state"
attr type enum
vector 56 simpleTsn.bridge1.eth[0].macLayer.queue.transmissionGate[3] guardBandState:vector ETV
attr enum ON,OFF
attr interpolationmode sample-hold
attr moduledisplaypath simpleTsn.bridge1.eth[0].macLayer.queue.p3
attr recordingmode vector
attr source guardBandStateChanged
attr title "guard band state"
attr type enum
vector 57 simpleTsn.bridge1.eth[0].macLayer.queue.transmissionGate[4] gateState:vector ETV
attr enum CLOSED,OPEN
attr interpolationmode sample-hold
attr moduledisplaypath simpleTsn.bridge1.eth[0].macLayer.queue.p4
attr recordingmode vector
attr source gateStateChanged
attr title "gate state"
attr type enum
vector 58 simpleTsn.bridge1.eth[0].macLayer.queue.transmissionGate[4] guardBandState:vector ETV
attr enum ON,OFF
attr interpolationmode sample-hold
attr moduledisplaypath simpleTsn.bridge1.eth[0].macLayer.queue.p4
attr recordingmode vector
attr source guardBandStateChanged
attr title "guard band state"
attr type enum
vector 59 simpleTsn.bridge1.eth[0].macLayer.queue.transmissionGate[5] gateState:vector ETV
attr enum CLOSED,OPEN
attr interpolationmode sample-hold
attr moduledisplaypath simpleTsn.bridge1.eth[0].macLayer.queue.p5
attr recordingmode vector
attr source gateStateChanged
attr title "gate state"
attr type enum
vector 60 simpleTsn.bridge1.eth[0].macLayer.queue.transmissionGate[5] guardBandState:vector ETV
attr enum ON,OFF
attr interpolationmode sample-hold
attr moduledisplaypath simpleTsn.bridge1.eth[0].macLayer.queue.p5
attr recordingmode vector
attr source guardBandStateChanged
attr title "guard band state"
attr type enum
vector 61 simpleTsn.bridge1.eth[0].macLayer.queue.transmissionGate[6] gateState:vector ETV
attr enum CLOSED,OPEN
attr interpolationmode sample-hold
attr moduledisplaypath simpleTsn.bridge1.eth[0].macLayer.queue.p6
attr recordingmode vector
attr source gateStateChanged
attr title "gate state"
attr type enum
vector 62 simpleTsn.bridge1.eth[0].macLayer.queue.transmissionGate[6] guardBandState:vector ETV
attr enum ON,OFF
attr interpolationmode sample-hold
attr moduledisplaypath simpleTsn.bridge1.eth[0].macLayer.queue.p6
attr recordingmode vector
attr source guardBandStateChanged
attr title "guard band state"
attr type enum
vector 63 simpleTsn.bridge1.eth[0].macLayer.queue.transmissionGate[7] gateState:vector ETV
attr enum CLOSED,OPEN
attr interpolationmode sample-hold
attr moduledisplaypath simpleTsn.bridge1.eth[0].macLayer.queue.p7
attr recordingmode vector
attr source gateStateChanged
attr title "gate state"
attr type enum
vector 64 simpleTsn.bridge1.eth[0].macLayer.queue.transmissionGate[7] guardBandState:vector ETV
attr enum ON,OFF
attr interpolationmode sample-hold
attr moduledisplaypath simpleTsn.bridge1.eth[0].macLayer.queue.p7
attr recordingmode vector
attr source guardBandStateChanged
attr title "guard band state"
attr type enum
vector 65 simpleTsn.bridge1.eth[1].macLayer.queue.transmissionGate[0] gateState:vector ETV
attr enum CLOSED,OPEN
attr interpolationmode sample-hold
attr moduledisplaypath "simpleTsn.bridge1.eth[1].macLayer.queue.best effort"
attr recordingmode vector
attr source gateStateChanged
attr title "gate state"
attr type enum
vector 66 simpleTsn.bridge1.eth[1].macLayer.queue.transmissionGate[0] guardBandState:vector ETV
attr enum ON,OFF
attr interpolationmode sample-hold
attr moduledisplaypath "simpleTsn.bridge1.eth[1].macLayer.queue.best effort"
attr recordingmode vector
attr source guardBandStateChanged
attr title "guard band state"
attr type enum
vector 67 simpleTsn.bridge1.eth[1].macLayer.queue.transmissionGate[1] gateState:vector ETV
attr enum CLOSED,OPEN
attr interpolationmode sample-hold
attr moduledisplaypath simpleTsn.bridge1.eth[1].macLayer.queue.video
attr recordingmode vector
attr source gateStateChanged
attr title "gate state"
attr type enum
vector 68 simpleTsn.bridge1.eth[1].macLayer.queue.transmissionGate[1] guardBandState:vector ETV
attr enum ON,OFF
attr interpolationmode sample-hold
attr moduledisplaypath simpleTsn.bridge1.eth[1].macLayer.queue.video
attr recordingmode vector
attr source guardBandStateChanged
attr title "guard band state"
attr type enum
vector 69 simpleTsn.bridge1.eth[1].macLayer.queue.transmissionGate[2] gateState:vector ETV
attr enum CLOSED,OPEN
attr interpolationmode sample-hold
attr moduledisplaypath simpleTsn.bridge1.eth[1].macLayer.queue.control
attr recordingmode vector
attr source gateStateChanged
attr title "gate state"
attr type enum
vector 70 simpleTsn.bridge1.eth[1].macLayer.queue.transmissionGate[2] guardBandState:vector ETV
attr enum ON,OFF
attr interpolationmode sample-hold
attr moduledisplaypath simpleTsn.bridge1.eth[1].macLayer.queue.control
attr recordingmode vector
attr source guardBandStateChanged
attr title "guard band state"
attr type enum
vector 71 simpleTsn.bridge1.eth[1].macLayer.queue.transmissionGate[3] gateState:vector ETV
attr enum CLOSED,OPEN
attr interpolationmode sample-hold
attr moduledisplaypath simpleTsn.bridge1.eth[1].macLayer.queue.p3
attr recordingmode vector
attr source gateStateChanged
attr title "gate state"
attr type enum
vector 72 simpleTsn.bridge1.eth[1].macLayer.queue.transmissionGate[3] guardBandState:vector ETV
attr enum ON,OFF
attr interpolationmode sample-hold
attr moduledisplaypath simpleTsn.bridge1.eth[1].macLayer.queue.p3
attr recordingmode vector
attr source guardBandStateChanged
attr title "guard band state"
attr type enum
vector 73 simpleTsn.bridge1.eth[1].macLayer.queue.transmissionGate[4] gateState:vector ETV
attr enum CLOSED,OPEN
attr interpolationmode sample-hold
attr moduledisplaypath simpleTsn.bridge1.eth[1].macLayer.queue.p4
attr recordingmode vector
attr source gateStateChanged
attr title "gate state"
attr type enum
vector 74 simpleTsn.bridge1.eth[1].macLayer.queue.transmissionGate[4] guardBandState:vector ETV
attr enum ON,OFF
attr interpolationmode sample-hold
attr moduledisplaypath simpleTsn.bridge1.eth[1].macLayer.queue.p4
attr recordingmode vector
attr source guardBandStateChanged
attr title "guard band state"
attr type enum
vector 75 simpleTsn.bridge1.eth[1].macLayer.queue.transmissionGate[5] gateState:vector ETV
attr enum CLOSED,OPEN
attr interpolationmode sample-hold
attr moduledisplaypath simpleTsn.bridge1.eth[1].macLayer.queue.p5
attr recordingmode vector
attr source gateStateChanged
attr title "gate state"
attr type enum
vector 76 simpleTsn.bridge1.eth[1].macLayer.queue.transmissionGate[5] guardBandState:vector ETV
attr enum ON,OFF
attr interpolationmode sample-hold
attr moduledisplaypath simpleTsn.bridge1.eth[1].macLayer.queue.p5
attr recordingmode vector
attr source guardBandStateChanged
attr title "guard band state"
attr type enum
vector 77 simpleTsn.bridge1.eth[1].macLayer.queue.transmissionGate[6] gateState:vector ETV
attr enum CLOSED,OPEN
attr interpolationmode sample-hold
attr moduledisplaypath simpleTsn.bridge1.eth[1].macLayer.queue.p6
attr recordingmode vector
attr source gateStateChanged
attr title "gate state"
attr type enum
vector 78 simpleTsn.bridge1.eth[1].macLayer.queue.transmissionGate[6] guardBandState:vector ETV
attr enum ON,OFF
attr interpolationmode sample-hold
attr moduledisplaypath simpleTsn.bridge1.eth[1].macLayer.queue.p6
attr recordingmode vector
attr source guardBandStateChanged
attr title "guard band state"
attr type enum
vector 79 simpleTsn.bridge1.eth[1].macLayer.queue.transmissionGate[7] gateState:vector ETV
attr enum CLOSED,OPEN
attr interpolationmode sample-hold
attr moduledisplaypath simpleTsn.bridge1.eth[1].macLayer.queue.p7
attr recordingmode vector
attr source gateStateChanged
attr title "gate state"
attr type enum
vector 80 simpleTsn.bridge1.eth[1].macLayer.queue.transmissionGate[7] guardBandState:vector ETV
attr enum ON,OFF
attr interpolationmode sample-hold
attr moduledisplaypath simpleTsn.bridge1.eth[1].macLayer.queue.p7
attr recordingmode vector
attr source guardBandStateChanged
attr title "guard band state"
attr type enum
vector 81 simpleTsn.bridge1.eth[2].macLayer.queue.transmissionGate[0] gateState:vector ETV
attr enum CLOSED,OPEN
attr interpolationmode sample-hold
attr moduledisplaypath "simpleTsn.bridge1.eth[2].macLayer.queue.best effort"
attr recordingmode vector
attr source gateStateChanged
attr title "gate state"
attr type enum
vector 82 simpleTsn.bridge1.eth[2].macLayer.queue.transmissionGate[0] guardBandState:vector ETV
attr enum ON,OFF
attr interpolationmode sample-hold
attr moduledisplaypath "simpleTsn.bridge1.eth[2].macLayer.queue.best effort"
attr recordingmode vector
attr source guardBandStateChanged
attr title "guard band state"
attr type enum
vector 83 simpleTsn.bridge1.eth[2].macLayer.queue.transmissionGate[1] gateState:vector ETV
attr enum CLOSED,OPEN
attr interpolationmode sample-hold
attr moduledisplaypath simpleTsn.bridge1.eth[2].macLayer.queue.video
attr recordingmode vector
attr source gateStateChanged
attr title "gate state"
attr type enum
vector 84 simpleTsn.bridge1.eth[2].macLayer.queue.transmissionGate[1] guardBandState:vector ETV
attr enum ON,OFF
attr interpolationmode sample-hold
attr moduledisplaypath simpleTsn.bridge1.eth[2].macLayer.queue.video
attr recordingmode vector
attr source guardBandStateChanged
attr title "guard band state"
attr type enum
vector 85 simpleTsn.bridge1.eth[2].macLayer.queue.transmissionGate[2] gateState:vector ETV
attr enum CLOSED,OPEN
attr interpolationmode sample-hold
attr moduledisplaypath simpleTsn.bridge1.eth[2].macLayer.queue.control
attr recordingmode vector
attr source gateStateChanged
attr title "gate state"
attr type enum
vector 86 simpleTsn.bridge1.eth[2].macLayer.queue.transmissionGate[2] guardBandState:vector ETV
attr enum ON,OFF
attr interpolationmode sample-hold
attr moduledisplaypath simpleTsn.bridge1.eth[2].macLayer.queue.control
attr recordingmode vector
attr source guardBandStateChanged
attr title "guard band state"
attr type enum
vector 87 simpleTsn.bridge1.eth[2].macLayer.queue.transmissionGate[3] gateState:vector ETV
attr enum CLOSED,OPEN
attr interpolationmode sample-hold
attr moduledisplaypath simpleTsn.bridge1.eth[2].macLayer.queue.p3
attr recordingmode vector
attr source gateStateChanged
attr title "gate state"
attr type enum
vector 88 simpleTsn.bridge1.eth[2].macLayer.queue.transmissionGate[3] guardBandState:vector ETV
attr enum ON,OFF
attr interpolationmode sample-hold
attr moduledisplaypath simpleTsn.bridge1.eth[2].macLayer.queue.p3
attr recordingmode vector
attr source guardBandStateChanged
attr title "guard band state"
attr type enum
vector 89 simpleTsn.bridge1.eth[2].macLayer.queue.transmissionGate[4] gateState:vector ETV
attr enum CLOSED,OPEN
attr interpolationmode sample-hold
attr moduledisplaypath simpleTsn.bridge1.eth[2].macLayer.queue.p4
attr recordingmode vector
attr source gateStateChanged
attr title "gate state"
attr type enum
vector 90 simpleTsn.bridge1.eth[2].macLayer.queue.transmissionGate[4] guardBandState:vector ETV
attr enum ON,OFF
attr interpolationmode sample-hold
attr moduledisplaypath simpleTsn.bridge1.eth[2].macLayer.queue.p4
attr recordingmode vector
attr source guardBandStateChanged
attr title "guard band state"
attr type enum
vector 91 simpleTsn.bridge1.eth[2].macLayer.queue.transmissionGate[5] gateState:vector ETV
attr enum CLOSED,OPEN
attr interpolationmode sample-hold
attr moduledisplaypath simpleTsn.bridge1.eth[2].macLayer.queue.p5
attr recordingmode vector
attr source gateStateChanged
attr title "gate state"
attr type enum
vector 92 simpleTsn.bridge1.eth[2].macLayer.queue.transmissionGate[5] guardBandState:vector ETV
attr enum ON,OFF
attr interpolationmode sample-hold
attr moduledisplaypath simpleTsn.bridge1.eth[2].macLayer.queue.p5
attr recordingmode vector
attr source guardBandStateChanged
attr title "guard band state"
attr type enum
vector 93 simpleTsn.bridge1.eth[2].macLayer.queue.transmissionGate[6] gateState:vector ETV
attr enum CLOSED,OPEN
attr interpolationmode sample-hold
attr moduledisplaypath simpleTsn.bridge1.eth[2].macLayer.queue.p6
attr recordingmode vector
attr source gateStateChanged
attr title "gate state"
attr type enum
vector 94 simpleTsn.bridge1.eth[2].macLayer.queue.transmissionGate[6] guardBandState:vector ETV
attr enum ON,OFF
attr interpolationmode sample-hold
attr moduledisplaypath simpleTsn.bridge1.eth[2].macLayer.queue.p6
attr recordingmode vector
attr source guardBandStateChanged
attr title "guard band state"
attr type enum
vector 95 simpleTsn.bridge1.eth[2].macLayer.queue.transmissionGate[7] gateState:vector ETV
attr enum CLOSED,OPEN
attr interpolationmode sample-hold
attr moduledisplaypath simpleTsn.bridge1.eth[2].macLayer.queue.p7
attr recordingmode vector
attr source gateStateChanged
attr title "gate state"
attr type enum
vector 96 simpleTsn.bridge1.eth[2].macLayer.queue.transmissionGate[7] guardBandState:vector ETV
attr enum ON,OFF
attr interpolationmode sample-hold
attr moduledisplaypath simpleTsn.bridge1.eth[2].macLayer.queue.p7
attr recordingmode vector
attr source guardBandStateChanged
attr title "guard band state"
attr type enum
vector 97 simpleTsn.bridge2.eth[0].macLayer.queue.transmissionGate[0] gateState:vector ETV
attr enum CLOSED,OPEN
attr interpolationmode sample-hold
attr moduledisplaypath "simpleTsn.bridge2.eth[0].macLayer.queue.best effort"
attr recordingmode vector
attr source gateStateChanged
attr title "gate state"
attr type enum
vector 98 simpleTsn.bridge2.eth[0].macLayer.queue.transmissionGate[0] guardBandState:vector ETV
attr enum ON,OFF
attr interpolationmode sample-hold
attr moduledisplaypath "simpleTsn.bridge2.eth[0].macLayer.queue.best effort"
attr recordingmode vector
attr source guardBandStateChanged
attr title "guard band state"
attr type enum
vector 99 simpleTsn.bridge2.eth[0].macLayer.queue.transmissionGate[1] gateState:vector ETV
attr enum CLOSED,OPEN
attr interpolationmode sample-hold
attr moduledisplaypath simpleTsn.bridge2.eth[0].macLayer.queue.video
attr recordingmode vector
attr source gateStateChanged
attr title "gate state"
attr type enum
vector 100 simpleTsn.bridge2.eth[0].macLayer.queue.transmissionGate[1] guardBandState:vector ETV
attr enum ON,OFF
attr interpolationmode sample-hold
attr moduledisplaypath simpleTsn.bridge2.eth[0].macLayer.queue.video
attr recordingmode vector
attr source guardBandStateChanged
attr title "guard band state"
attr type enum
vector 101 simpleTsn.bridge2.eth[0].macLayer.queue.transmissionGate[2] gateState:vector ETV
attr enum CLOSED,OPEN
attr interpolationmode sample-hold
attr moduledisplaypath simpleTsn.bridge2.eth[0].macLayer.queue.control
attr recordingmode vector
attr source gateStateChanged
attr title "gate state"
attr type enum
vector 102 simpleTsn.bridge2.eth[0].macLayer.queue.transmissionGate[2] guardBandState:vector ETV
attr enum ON,OFF
attr interpolationmode sample-hold
attr moduledisplaypath simpleTsn.bridge2.eth[0].macLayer.queue.control
attr recordingmode vector
attr source guardBandStateChanged
attr title "guard band state"
attr type enum
vector 103 simpleTsn.bridge2.eth[0].macLayer.queue.transmissionGate[3] gateState:vector ETV
attr enum CLOSED,OPEN
attr interpolationmode sample-hold
attr moduledisplaypath simpleTsn.bridge2.eth[0].macLayer.queue.p3
attr recordingmode vector
attr source gateStateChanged
attr title "gate state"
attr type enum
vector 104 simpleTsn.bridge2.eth[0].macLayer.queue.transmissionGate[3] guardBandState:vector ETV
attr enum ON,OFF
attr interpolationmode sample-hold
attr moduledisplaypath simpleTsn.bridge2.eth[0].macLayer.queue.p3
attr recordingmode vector
attr source guardBandStateChanged
attr title "guard band state"
attr type enum
vector 105 simpleTsn.bridge2.eth[0].macLayer.queue.transmissionGate[4] gateState:vector ETV
attr enum CLOSED,OPEN
attr interpolationmode sample-hold
attr moduledisplaypath simpleTsn.bridge2.eth[0].macLayer.queue.p4
attr recordingmode vector
attr source gateStateChanged
attr title "gate state"
attr type enum
vector 106 simpleTsn.bridge2.eth[0].macLayer.queue.transmissionGate[4] guardBandState:vector ETV
attr enum ON,OFF
attr interpolationmode sample-hold
attr moduledisplaypath simpleTsn.bridge2.eth[0].macLayer.queue.p4
attr recordingmode vector
attr source guardBandStateChanged
attr title "guard band state"
attr type enum
vector 107 simpleTsn.bridge2.eth[0].macLayer.queue.transmissionGate[5] gateState:vector ETV
attr enum CLOSED,OPEN
attr interpolationmode sample-hold
attr moduledisplaypath simpleTsn.bridge2.eth[0].macLayer.queue.p5
attr recordingmode vector
attr source gateStateChanged
attr title "gate state"
attr type enum
vector 108 simpleTsn.bridge2.eth[0].macLayer.queue.transmissionGate[5] guardBandState:vector ETV
attr enum ON,OFF
attr interpolationmode sample-hold
attr moduledisplaypath simpleTsn.bridge2.eth[0].macLayer.queue.p5
attr recordingmode vector
attr source guardBandStateChanged
attr title "guard band state"
attr type enum
vector 109 simpleTsn.bridge2.eth[0].macLayer.queue.transmissionGate[6] gateState:vector ETV
attr enum CLOSED,OPEN
attr interpolationmode sample-hold
attr moduledisplaypath simpleTsn.bridge2.eth[0].macLayer.queue.p6
attr recordingmode vector
attr source gateStateChanged
attr title "gate state"
attr type enum
vector 110 simpleTsn.bridge2.eth[0].macLayer.queue.transmissionGate[6] guardBandState:vector ETV
attr enum ON,OFF
attr interpolationmode sample-hold
attr moduledisplaypath simpleTsn.bridge2.eth[0].macLayer.queue.p6
attr recordingmode vector
attr source guardBandStateChanged
attr title "guard band state"
attr type enum
vector 111 simpleTsn.bridge2.eth[0].macLayer.queue.transmissionGate[7] gateState:vector ETV
attr enum CLOSED,OPEN
attr interpolationmode sample-hold
attr moduledisplaypath simpleTsn.bridge2.eth[0].macLayer.queue.p7
attr recordingmode vector
attr source gateStateChanged
attr title "gate state"
attr type enum
vector 112 simpleTsn.bridge2.eth[0].macLayer.queue.transmissionGate[7] guardBandState:vector ETV
attr enum ON,OFF
attr interpolationmode sample-hold
attr moduledisplaypath simpleTsn.bridge2.eth[0].macLayer.queue.p7
attr recordingmode vector
attr source guardBandStateChanged
attr title "guard band state"
attr type enum
vector 113 simpleTsn.bridge2.eth[1].macLayer.queue.transmissionGate[0] gateState:vector ETV
attr enum CLOSED,OPEN
attr interpolationmode sample-hold
attr moduledisplaypath "simpleTsn.bridge2.eth[1].macLayer.queue.best effort"
attr recordingmode vector
attr source gateStateChanged
attr title "gate state"
attr type enum
vector 114 simpleTsn.bridge2.eth[1].macLayer.queue.transmissionGate[0] guardBandState:vector ETV
attr enum ON,OFF
attr interpolationmode sample-hold
attr moduledisplaypath "simpleTsn.bridge2.eth[1].macLayer.queue.best effort"
attr recordingmode vector
attr source guardBandStateChanged
attr title "guard band state"
attr type enum
vector 115 simpleTsn.bridge2.eth[1].macLayer.queue.transmissionGate[1] gateState:vector ETV
attr enum CLOSED,OPEN
attr interpolationmode sample-hold
attr moduledisplaypath simpleTsn.bridge2.eth[1].macLayer.queue.video
attr recordingmode vector
attr source gateStateChanged
attr title "gate state"
attr type enum
vector 116 simpleTsn.bridge2.eth[1].macLayer.queue.transmissionGate[1] guardBandState:vector ETV
attr enum ON,OFF
attr interpolationmode sample-hold
attr moduledisplaypath simpleTsn.bridge2.eth[1].macLayer.queue.video
attr recordingmode vector
attr source guardBandStateChanged
attr title "guard band state"
attr type enum
vector 117 simpleTsn.bridge2.eth[1].macLayer.queue.transmissionGate[2] gateState:vector ETV
attr enum CLOSED,OPEN
attr interpolationmode sample-hold
attr moduledisplaypath simpleTsn.bridge2.eth[1].macLayer.queue.control
attr recordingmode vector
attr source gateStateChanged
attr title "gate state"
attr type enum
vector 118 simpleTsn.bridge2.eth[1].macLayer.queue.transmissionGate[2] guardBandState:vector ETV
attr enum ON,OFF
attr interpolationmode sample-hold
attr moduledisplaypath simpleTsn.bridge2.eth[1].macLayer.queue.control
attr recordingmode vector
attr source guardBandStateChanged
attr title "guard band state"
attr type enum
vector 119 simpleTsn.bridge2.eth[1].macLayer.queue.transmissionGate[3] gateState:vector ETV
attr enum CLOSED,OPEN
attr interpolationmode sample-hold
attr moduledisplaypath simpleTsn.bridge2.eth[1].macLayer.queue.p3
attr recordingmode vector
attr source gateStateChanged
attr title "gate state"
attr type enum
vector 120 simpleTsn.bridge2.eth[1].macLayer.queue.transmissionGate[3] guardBandState:vector ETV
attr enum ON,OFF
attr interpolationmode sample-hold
attr moduledisplaypath simpleTsn.bridge2.eth[1].macLayer.queue.p3
attr recordingmode vector
attr source guardBandStateChanged
attr title "guard band state"
attr type enum
vector 121 simpleTsn.bridge2.eth[1].macLayer.queue.transmissionGate[4] gateState:vector ETV
attr enum CLOSED,OPEN
attr interpolationmode sample-hold
attr moduledisplaypath simpleTsn.bridge2.eth[1].macLayer.queue.p4
attr recordingmode vector
attr source gateStateChanged
attr title "gate state"
attr type enum
vector 122 simpleTsn.bridge2.eth[1].macLayer.queue.transmissionGate[4] guardBandState:vector ETV
attr enum ON,OFF
attr interpolationmode sample-hold
attr moduledisplaypath simpleTsn.bridge2.eth[1].macLayer.queue.p4
attr recordingmode vector
attr source guardBandStateChanged
attr title "guard band state"
attr type enum
vector 123 simpleTsn.bridge2.eth[1].macLayer.queue.transmissionGate[5] gateState:vector ETV
attr enum CLOSED,OPEN
attr interpolationmode sample-hold
attr moduledisplaypath simpleTsn.bridge2.eth[1].macLayer.queue.p5
attr recordingmode vector
attr source gateStateChanged
attr title "gate state"
attr type enum
vector 124 simpleTsn.bridge2.eth[1].macLayer.queue.transmissionGate[5] guardBandState:vector ETV
attr enum ON,OFF
attr interpolationmode sample-hold
attr moduledisplaypath simpleTsn.bridge2.eth[1].macLayer.queue.p5
attr recordingmode vector
attr source guardBandStateChanged
attr title "guard band state"
attr type enum
vector 125 simpleTsn.bridge2.eth[1].macLayer.queue.transmissionGate[6] gateState:vector ETV
attr enum CLOSED,OPEN
attr interpolationmode sample-hold
attr moduledisplaypath simpleTsn.bridge2.eth[1].macLayer.queue.p6
attr recordingmode vector
attr source gateStateChanged
attr title "gate state"
attr type enum
vector 126 simpleTsn.bridge2.eth[1].macLayer.queue.transmissionGate[6] guardBandState:vector ETV
attr enum ON,OFF
attr interpolationmode sample-hold
attr moduledisplaypath simpleTsn.bridge2.eth[1].macLayer.queue.p6
attr recordingmode vector
attr source guardBandStateChanged
attr title "guard band state"
attr type enum
vector 127 simpleTsn.bridge2.eth[1].macLayer.queue.transmissionGate[7] gateState:vector ETV
attr enum CLOSED,OPEN
attr interpolationmode sample-hold
attr moduledisplaypath simpleTsn.bridge2.eth[1].macLayer.queue.p7
attr recordingmode vector
attr source gateStateChanged
attr title "gate state"
attr type enum
vector 128 simpleTsn.bridge2.eth[1].macLayer.queue.transmissionGate[7] guardBandState:vector ETV
attr enum ON,OFF
attr interpolationmode sample-hold
attr moduledisplaypath simpleTsn.bridge2.eth[1].macLayer.queue.p7
attr recordingmode vector
attr source guardBandStateChanged
attr title "guard band state"
attr type enum
vector 129 simpleTsn.bridge2.eth[2].macLayer.queue.transmissionGate[0] gateState:vector ETV
attr enum CLOSED,OPEN
attr interpolationmode sample-hold
attr moduledisplaypath "simpleTsn.bridge2.eth[2].macLayer.queue.best effort"
attr recordingmode vector
attr source gateStateChanged
attr title "gate state"
attr type enum
vector 130 simpleTsn.bridge2.eth[2].macLayer.queue.transmissionGate[0] guardBandState:vector ETV
attr enum ON,OFF
attr interpolationmode sample-hold
attr moduledisplaypath "simpleTsn.bridge2.eth[2].macLayer.queue.best effort"
attr recordingmode vector
attr source guardBandStateChanged
attr title "guard band state"
attr type enum
vector 131 simpleTsn.bridge2.eth[2].macLayer.queue.transmissionGate[1] gateState:vector ETV
attr enum CLOSED,OPEN
attr interpolationmode sample-hold
attr moduledisplaypath simpleTsn.bridge2.eth[2].macLayer.queue.video
attr recordingmode vector
attr source gateStateChanged
attr title "gate state"
attr type enum
vector 132 simpleTsn.bridge2.eth[2].macLayer.queue.transmissionGate[1] guardBandState:vector ETV
attr enum ON,OFF
attr interpolationmode sample-hold
attr moduledisplaypath simpleTsn.bridge2.eth[2].macLayer.queue.video
attr recordingmode vector
attr source guardBandStateChanged
attr title "guard band state"
attr type enum
vector 133 simpleTsn.bridge2.eth[2].macLayer.queue.transmissionGate[2] gateState:vector ETV
attr enum CLOSED,OPEN
attr interpolationmode sample-hold
attr moduledisplaypath simpleTsn.bridge2.eth[2].macLayer.queue.control
attr recordingmode vector
attr source gateStateChanged
attr title "gate state"
attr type enum
vector 134 simpleTsn.bridge2.eth[2].macLayer.queue.transmissionGate[2] guardBandState:vector ETV
attr enum ON,OFF
attr interpolationmode sample-hold
attr moduledisplaypath simpleTsn.bridge2.eth[2].macLayer.queue.control
attr recordingmode vector
attr source guardBandStateChanged
attr title "guard band state"
attr type enum
vector 135 simpleTsn.bridge2.eth[2].macLayer.queue.transmissionGate[3] gateState:vector ETV
attr enum CLOSED,OPEN
attr interpolationmode sample-hold
attr moduledisplaypath simpleTsn.bridge2.eth[2].macLayer.queue.p3
attr recordingmode vector
attr source gateStateChanged
attr title "gate state"
attr type enum
vector 136 simpleTsn.bridge2.eth[2].macLayer.queue.transmissionGate[3] guardBandState:vector ETV
attr enum ON,OFF
attr interpolationmode sample-hold
attr moduledisplaypath simpleTsn.bridge2.eth[2].macLayer.queue.p3
attr recordingmode vector
attr source guardBandStateChanged
attr title "guard band state"
attr type enum
vector 137 simpleTsn.bridge2.eth[2].macLayer.queue.transmissionGate[4] gateState:vector ETV
attr enum CLOSED,OPEN
attr interpolationmode sample-hold
attr moduledisplaypath simpleTsn.bridge2.eth[2].macLayer.queue.p4
attr recordingmode vector
attr source gateStateChanged
attr title "gate state"
attr type enum
vector 138 simpleTsn.bridge2.eth[2].macLayer.queue.transmissionGate[4] guardBandState:vector ETV
attr enum ON,OFF
attr interpolationmode sample-hold
attr moduledisplaypath simpleTsn.bridge2.eth[2].macLayer.queue.p4
attr recordingmode vector
attr source guardBandStateChanged
attr title "guard band state"
attr type enum
vector 139 simpleTsn.bridge2.eth[2].macLayer.queue.transmissionGate[5] gateState:vector ETV
attr enum CLOSED,OPEN
attr interpolationmode sample-hold
attr moduledisplaypath simpleTsn.bridge2.eth[2].macLayer.queue.p5
attr recordingmode vector
attr source gateStateChanged
attr title "gate state"
attr type enum
vector 140 simpleTsn.bridge2.eth[2].macLayer.queue.transmissionGate[5] guardBandState:vector ETV
attr enum ON,OFF
attr interpolationmode sample-hold
attr moduledisplaypath simpleTsn.bridge2.eth[2].macLayer.queue.p5
attr recordingmode vector
attr source guardBandStateChanged
attr title "guard band state"
attr type enum
vector 141 simpleTsn.bridge2.eth[2].macLayer.queue.transmissionGate[6] gateState:vector ETV
attr enum CLOSED,OPEN
attr interpolationmode sample-hold
attr moduledisplaypath simpleTsn.bridge2.eth[2].macLayer.queue.p6
attr recordingmode vector
attr source gateStateChanged
attr title "gate state"
attr type enum
vector 142 simpleTsn.bridge2.eth[2].macLayer.queue.transmissionGate[6] guardBandState:vector ETV
attr enum ON,OFF
attr interpolationmode sample-hold
attr moduledisplaypath simpleTsn.bridge2.eth[2].macLayer.queue.p6
attr recordingmode vector
attr source guardBandStateChanged
attr title "guard band state"
attr type enum
vector 143 simpleTsn.bridge2.eth[2].macLayer.queue.transmissionGate[7] gateState:vector ETV
attr enum CLOSED,OPEN
attr interpolationmode sample-hold
attr moduledisplaypath simpleTsn.bridge2.eth[2].macLayer.queue.p7
attr recordingmode vector
attr source gateStateChanged
attr title "gate state"
attr type enum
vector 144 simpleTsn.bridge2.eth[2].macLayer.queue.transmissionGate[7] guardBandState:vector ETV
attr enum ON,OFF
attr interpolationmode sample-hold
attr moduledisplaypath simpleTsn.bridge2.eth[2].macLayer.queue.p7
attr recordingmode vector
attr source guardBandStateChanged
attr title "guard band state"
attr type enum
vector 145 simpleTsn.bridge3.eth[0].macLayer.queue.transmissionGate[0] gateState:vector ETV
attr enum CLOSED,OPEN
attr interpolationmode sample-hold
attr moduledisplaypath "simpleTsn.bridge3.eth[0].macLayer.queue.best effort"
attr recordingmode vector
attr source gateStateChanged
attr title "gate state"
attr type enum
vector 146 simpleTsn.bridge3.eth[0].macLayer.queue.transmissionGate[0] guardBandState:vector ETV
attr enum ON,OFF
attr interpolationmode sample-hold
attr moduledisplaypath "simpleTsn.bridge3.eth[0].macLayer.queue.best effort"
attr recordingmode vector
attr source guardBandStateChanged
attr title "guard band state"
attr type enum
vector 147 simpleTsn.bridge3.eth[0].macLayer.queue.transmissionGate[1] gateState:vector ETV
attr enum CLOSED,OPEN
attr interpolationmode sample-hold
attr moduledisplaypath simpleTsn.bridge3.eth[0].macLayer.queue.video
attr recordingmode vector
attr source gateStateChanged
attr title "gate state"
attr type enum
vector 148 simpleTsn.bridge3.eth[0].macLayer.queue.transmissionGate[1] guardBandState:vector ETV
attr enum ON,OFF
attr interpolationmode sample-hold
attr moduledisplaypath simpleTsn.bridge3.eth[0].macLayer.queue.video
attr recordingmode vector
attr source guardBandStateChanged
attr title "guard band state"
attr type enum
vector 149 simpleTsn.bridge3.eth[0].macLayer.queue.transmissionGate[2] gateState:vector ETV
attr enum CLOSED,OPEN
attr interpolationmode sample-hold
attr moduledisplaypath simpleTsn.bridge3.eth[0].macLayer.queue.control
attr recordingmode vector
attr source gateStateChanged
attr title "gate state"
attr type enum
vector 150 simpleTsn.bridge3.eth[0].macLayer.queue.transmissionGate[2] guardBandState:vector ETV
attr enum ON,OFF
attr interpolationmode sample-hold
attr moduledisplaypath simpleTsn.bridge3.eth[0].macLayer.queue.control
attr recordingmode vector
attr source guardBandStateChanged
attr title "guard band state"
attr type enum
vector 151 simpleTsn.bridge3.eth[0].macLayer.queue.transmissionGate[3] gateState:vector ETV
attr enum CLOSED,OPEN
attr interpolationmode sample-hold
attr moduledisplaypath simpleTsn.bridge3.eth[0].macLayer.queue.p3
attr recordingmode vector
attr source gateStateChanged
attr title "gate state"
attr type enum
vector 152 simpleTsn.bridge3.eth[0].macLayer.queue.transmissionGate[3] guardBandState:vector ETV
attr enum ON,OFF
attr interpolationmode sample-hold
attr moduledisplaypath simpleTsn.bridge3.eth[0].macLayer.queue.p3
attr recordingmode vector
attr source guardBandStateChanged
attr title "guard band state"
attr type enum
vector 153 simpleTsn.bridge3.eth[0].macLayer.queue.transmissionGate[4] gateState:vector ETV
attr enum CLOSED,OPEN
attr interpolationmode sample-hold
attr moduledisplaypath simpleTsn.bridge3.eth[0].macLayer.queue.p4
attr recordingmode vector
attr source gateStateChanged
attr title "gate state"
attr type enum
vector 154 simpleTsn.bridge3.eth[0].macLayer.queue.transmissionGate[4] guardBandState:vector ETV
attr enum ON,OFF
attr interpolationmode sample-hold
attr moduledisplaypath simpleTsn.bridge3.eth[0].macLayer.queue.p4
attr recordingmode vector
attr source guardBandStateChanged
attr title "guard band state"
attr type enum
vector 155 simpleTsn.bridge3.eth[0].macLayer.queue.transmissionGate[5] gateState:vector ETV
attr enum CLOSED,OPEN
attr interpolationmode sample-hold
attr moduledisplaypath simpleTsn.bridge3.eth[0].macLayer.queue.p5
attr recordingmode vector
attr source gateStateChanged
attr title "gate state"
attr type enum
vector 156 simpleTsn.bridge3.eth[0].macLayer.queue.transmissionGate[5] guardBandState:vector ETV
attr enum ON,OFF
attr interpolationmode sample-hold
attr moduledisplaypath simpleTsn.bridge3.eth[0].macLayer.queue.p5
attr recordingmode vector
attr source guardBandStateChanged
attr title "guard band state"
attr type enum
vector 157 simpleTsn.bridge3.eth[0].macLayer.queue.transmissionGate[6] gateState:vector ETV
attr enum CLOSED,OPEN
attr interpolationmode sample-hold
attr moduledisplaypath simpleTsn.bridge3.eth[0].macLayer.queue.p6
attr recordingmode vector
attr source gateStateChanged
attr title "gate state"
attr type enum
vector 158 simpleTsn.bridge3.eth[0].macLayer.queue.transmissionGate[6] guardBandState:vector ETV
attr enum ON,OFF
attr interpolationmode sample-hold
attr moduledisplaypath simpleTsn.bridge3.eth[0].macLayer.queue.p6
attr recordingmode vector
attr source guardBandStateChanged
attr title "guard band state"
attr type enum
vector 159 simpleTsn.bridge3.eth[0].macLayer.queue.transmissionGate[7] gateState:vector ETV
attr enum CLOSED,OPEN
attr interpolationmode sample-hold
attr moduledisplaypath simpleTsn.bridge3.eth[0].macLayer.queue.p7
attr recordingmode vector
attr source gateStateChanged
attr title "gate state"
attr type enum
vector 160 simpleTsn.bridge3.eth[0].macLayer.queue.transmissionGate[7] guardBandState:vector ETV
attr enum ON,OFF
attr interpolationmode sample-hold
attr moduledisplaypath simpleTsn.bridge3.eth[0].macLayer.queue.p7
attr recordingmode vector
attr source guardBandStateChanged
attr title "guard band state"
attr type enum
vector 161 simpleTsn.bridge3.eth[1].macLayer.queue.transmissionGate[0] gateState:vector ETV
attr enum CLOSED,OPEN
attr interpolationmode sample-hold
attr moduledisplaypath "simpleTsn.bridge3.eth[1].macLayer.queue.best effort"
attr recordingmode vector
attr source gateStateChanged
attr title "gate state"
attr type enum
vector 162 simpleTsn.bridge3.eth[1].macLayer.queue.transmissionGate[0] guardBandState:vector ETV
attr enum ON,OFF
attr interpolationmode sample-hold
attr moduledisplaypath "simpleTsn.bridge3.eth[1].macLayer.queue.best effort"
attr recordingmode vector
attr source guardBandStateChanged
attr title "guard band state"
attr type enum
vector 163 simpleTsn.bridge3.eth[1].macLayer.queue.transmissionGate[1] gateState:vector ETV
attr enum CLOSED,OPEN
attr interpolationmode sample-hold
attr moduledisplaypath simpleTsn.bridge3.eth[1].macLayer.queue.video
attr recordingmode vector
attr source gateStateChanged
attr title "gate state"
attr type enum
vector 164 simpleTsn.bridge3.eth[1].macLayer.queue.transmissionGate[1] guardBandState:vector ETV
attr enum ON,OFF
attr interpolationmode sample-hold
attr moduledisplaypath simpleTsn.bridge3.eth[1].macLayer.queue.video
attr recordingmode vector
attr source guardBandStateChanged
attr title "guard band state"
attr type enum
vector 165 simpleTsn.bridge3.eth[1].macLayer.queue.transmissionGate[2] gateState:vector ETV
attr enum CLOSED,OPEN
attr interpolationmode sample-hold
attr moduledisplaypath simpleTsn.bridge3.eth[1].macLayer.queue.control
attr recordingmode vector
attr source gateStateChanged
attr title "gate state"
attr type enum
vector 166 simpleTsn.bridge3.eth[1].macLayer.queue.transmissionGate[2] guardBandState:vector ETV
attr enum ON,OFF
attr interpolationmode sample-hold
attr moduledisplaypath simpleTsn.bridge3.eth[1].macLayer.queue.control
attr recordingmode vector
attr source guardBandStateChanged
attr title "guard band state"
attr type enum
vector 167 simpleTsn.bridge3.eth[1].macLayer.queue.transmissionGate[3] gateState:vector ETV
attr enum CLOSED,OPEN
attr interpolationmode sample-hold
attr moduledisplaypath simpleTsn.bridge3.eth[1].macLayer.queue.p3
attr recordingmode vector
attr source gateStateChanged
attr title "gate state"
attr type enum
vector 168 simpleTsn.bridge3.eth[1].macLayer.queue.transmissionGate[3] guardBandState:vector ETV
attr enum ON,OFF
attr interpolationmode sample-hold
attr moduledisplaypath simpleTsn.bridge3.eth[1].macLayer.queue.p3
attr recordingmode vector
attr source guardBandStateChanged
attr title "guard band state"
attr type enum
vector 169 simpleTsn.bridge3.eth[1].macLayer.queue.transmissionGate[4] gateState:vector ETV
attr enum CLOSED,OPEN
attr interpolationmode sample-hold
attr moduledisplaypath simpleTsn.bridge3.eth[1].macLayer.queue.p4
attr recordingmode vector
attr source gateStateChanged
attr title "gate state"
attr type enum
vector 170 simpleTsn.bridge3.eth[1].macLayer.queue.transmissionGate[4] guardBandState:vector ETV
attr enum ON,OFF
attr interpolationmode sample-hold
attr moduledisplaypath simpleTsn.bridge3.eth[1].macLayer.queue.p4
attr recordingmode vector
attr source guardBandStateChanged
attr title "guard band state"
attr type enum
vector 171 simpleTsn.bridge3.eth[1].macLayer.queue.transmissionGate[5] gateState:vector ETV
attr enum CLOSED,OPEN
attr interpolationmode sample-hold
attr moduledisplaypath simpleTsn.bridge3.eth[1].macLayer.queue.p5
attr recordingmode vector
attr source gateStateChanged
attr title "gate state"
attr type enum
vector 172 simpleTsn.bridge3.eth[1].macLayer.queue.transmissionGate[5] guardBandState:vector ETV
attr enum ON,OFF
attr interpolationmode sample-hold
attr moduledisplaypath simpleTsn.bridge3.eth[1].macLayer.queue.p5
attr recordingmode vector
attr source guardBandStateChanged
attr title "guard band state"
attr type enum
vector 173 simpleTsn.bridge3.eth[1].macLayer.queue.transmissionGate[6] gateState:vector ETV
attr enum CLOSED,OPEN
attr interpolationmode sample-hold
attr moduledisplaypath simpleTsn.bridge3.eth[1].macLayer.queue.p6
attr recordingmode vector
attr source gateStateChanged
attr title "gate state"
attr type enum
vector 174 simpleTsn.bridge3.eth[1].macLayer.queue.transmissionGate[6] guardBandState:vector ETV
attr enum ON,OFF
attr interpolationmode sample-hold
attr moduledisplaypath simpleTsn.bridge3.eth[1].macLayer.queue.p6
attr recordingmode vector
attr source guardBandStateChanged
attr title "guard band state"
attr type enum
vector 175 simpleTsn.bridge3.eth[1].macLayer.queue.transmissionGate[7] gateState:vector ETV
attr enum CLOSED,OPEN
attr interpolationmode sample-hold
attr moduledisplaypath simpleTsn.bridge3.eth[1].macLayer.queue.p7
attr recordingmode vector
attr source gateStateChanged
attr title "gate state"
attr type enum
vector 176 simpleTsn.bridge3.eth[1].macLayer.queue.transmissionGate[7] guardBandState:vector ETV
attr enum ON,OFF
attr interpolationmode sample-hold
attr moduledisplaypath simpleTsn.bridge3.eth[1].macLayer.queue.p7
attr recordingmode vector
attr source guardBandStateChanged
attr title "guard band state"
attr type enum
vector 177 simpleTsn.bridge3.eth[2].macLayer.queue.transmissionGate[0] gateState:vector ETV
attr enum CLOSED,OPEN
attr interpolationmode sample-hold
attr moduledisplaypath "simpleTsn.bridge3.eth[2].macLayer.queue.best effort"
attr recordingmode vector
attr source gateStateChanged
attr title "gate state"
attr type enum
vector 178 simpleTsn.bridge3.eth[2].macLayer.queue.transmissionGate[0] guardBandState:vector ETV
attr enum ON,OFF
attr interpolationmode sample-hold
attr moduledisplaypath "simpleTsn.bridge3.eth[2].macLayer.queue.best effort"
attr recordingmode vector
attr source guardBandStateChanged
attr title "guard band state"
attr type enum
vector 179 simpleTsn.bridge3.eth[2].macLayer.queue.transmissionGate[1] gateState:vector ETV
attr enum CLOSED,OPEN
attr interpolationmode sample-hold
attr moduledisplaypath simpleTsn.bridge3.eth[2].macLayer.queue.video
attr recordingmode vector
attr source gateStateChanged
attr title "gate state"
attr type enum
vector 180 simpleTsn.bridge3.eth[2].macLayer.queue.transmissionGate[1] guardBandState:vector ETV
attr enum ON,OFF
attr interpolationmode sample-hold
attr moduledisplaypath simpleTsn.bridge3.eth[2].macLayer.queue.video
attr recordingmode vector
attr source guardBandStateChanged
attr title "guard band state"
attr type enum
vector 181 simpleTsn.bridge3.eth[2].macLayer.queue.transmissionGate[2] gateState:vector ETV
attr enum CLOSED,OPEN
attr interpolationmode sample-hold
attr moduledisplaypath simpleTsn.bridge3.eth[2].macLayer.queue.control
attr recordingmode vector
attr source gateStateChanged
attr title "gate state"
attr type enum
vector 182 simpleTsn.bridge3.eth[2].macLayer.queue.transmissionGate[2] guardBandState:vector ETV
attr enum ON,OFF
attr interpolationmode sample-hold
attr moduledisplaypath simpleTsn.bridge3.eth[2].macLayer.queue.control
attr recordingmode vector
attr source guardBandStateChanged
attr title "guard band state"
attr type enum
vector 183 simpleTsn.bridge3.eth[2].macLayer.queue.transmissionGate[3] gateState:vector ETV
attr enum CLOSED,OPEN
attr interpolationmode sample-hold
attr moduledisplaypath simpleTsn.bridge3.eth[2].macLayer.queue.p3
attr recordingmode vector
attr source gateStateChanged
attr title "gate state"
attr type enum
vector 184 simpleTsn.bridge3.eth[2].macLayer.queue.transmissionGate[3] guardBandState:vector ETV
attr enum ON,OFF
attr interpolationmode sample-hold
attr moduledisplaypath simpleTsn.bridge3.eth[2].macLayer.queue.p3
attr recordingmode vector
attr source guardBandStateChanged
attr title "guard band state"
attr type enum
vector 185 simpleTsn.bridge3.eth[2].macLayer.queue.transmissionGate[4] gateState:vector ETV
attr enum CLOSED,OPEN
attr interpolationmode sample-hold
attr moduledisplaypath simpleTsn.bridge3.eth[2].macLayer.queue.p4
attr recordingmode vector
attr source gateStateChanged
attr title "gate state"
attr type enum
vector 186 simpleTsn.bridge3.eth[2].macLayer.queue.transmissionGate[4] guardBandState:vector ETV
attr enum ON,OFF
attr interpolationmode sample-hold
attr moduledisplaypath simpleTsn.bridge3.eth[2].macLayer.queue.p4
attr recordingmode vector
attr source guardBandStateChanged
attr title "guard band state"
attr type enum
vector 187 simpleTsn.bridge3.eth[2].macLayer.queue.transmissionGate[5] gateState:vector ETV
attr enum CLOSED,OPEN
attr interpolationmode sample-hold
attr moduledisplaypath simpleTsn.bridge3.eth[2].macLayer.queue.p5
attr recordingmode vector
attr source gateStateChanged
attr title "gate state"
attr type enum
vector 188 simpleTsn.bridge3.eth[2].macLayer.queue.transmissionGate[5] guardBandState:vector ETV
attr enum ON,OFF
attr interpolationmode sample-hold
attr moduledisplaypath simpleTsn.bridge3.eth[2].macLayer.queue.p5
attr recordingmode vector
attr source guardBandStateChanged
attr title "guard band state"
attr type enum
vector 189 simpleTsn.bridge3.eth[2].macLayer.queue.transmissionGate[6] gateState:vector ETV
attr enum CLOSED,OPEN
attr interpolationmode sample-hold
attr moduledisplaypath simpleTsn.bridge3.eth[2].macLayer.queue.p6
attr recordingmode vector
attr source gateStateChanged
attr title "gate state"
attr type enum
vector 190 simpleTsn.bridge3.eth[2].macLayer.queue.transmissionGate[6] guardBandState:vector ETV
attr enum ON,OFF
attr interpolationmode sample-hold
attr moduledisplaypath simpleTsn.bridge3.eth[2].macLayer.queue.p6
attr recordingmode vector
attr source guardBandStateChanged
attr title "guard band state"
attr type enum
vector 191 simpleTsn.bridge3.eth[2].macLayer.queue.transmissionGate[7] gateState:vector ETV
attr enum CLOSED,OPEN
attr interpolationmode sample-hold
attr moduledisplaypath simpleTsn.bridge3.eth[2].macLayer.queue.p7
attr recordingmode vector
attr source gateStateChanged
attr title "gate state"
attr type enum
vector 192 simpleTsn.bridge3.eth[2].macLayer.queue.transmissionGate[7] guardBandState:vector ETV
attr enum ON,OFF
attr interpolationmode sample-hold
attr moduledisplaypath simpleTsn.bridge3.eth[2].macLayer.queue.p7
attr recordingmode vector
attr source guardBandStateChanged
attr title "guard band state"
attr type enum
vector 193 simpleTsn.device1.eth[0].macLayer.queue.transmissionGate[0] gateState:vector ETV
attr enum CLOSED,OPEN
attr interpolationmode sample-hold
attr recordingmode vector
attr source gateStateChanged
attr title "gate state"
attr type enum
vector 194 simpleTsn.device1.eth[0].macLayer.queue.transmissionGate[0] guardBandState:vector ETV
attr enum ON,OFF
attr interpolationmode sample-hold
attr recordingmode vector
attr source guardBandStateChanged
attr title "guard band state"
attr type enum
vector 195 simpleTsn.device1.eth[0].macLayer.queue.transmissionGate[1] gateState:vector ETV
attr enum CLOSED,OPEN
attr interpolationmode sample-hold
attr recordingmode vector
attr source gateStateChanged
attr title "gate state"
attr type enum
vector 196 simpleTsn.device1.eth[0].macLayer.queue.transmissionGate[1] guardBandState:vector ETV
attr enum ON,OFF
attr interpolationmode sample-hold
attr recordingmode vector
attr source guardBandStateChanged
attr title "guard band state"
attr type enum
vector 197 simpleTsn.device1.eth[0].macLayer.queue.transmissionGate[2] gateState:vector ETV
attr enum CLOSED,OPEN
attr interpolationmode sample-hold
attr recordingmode vector
attr source gateStateChanged
attr title "gate state"
attr type enum
vector 198 simpleTsn.device1.eth[0].macLayer.queue.transmissionGate[2] guardBandState:vector ETV
attr enum ON,OFF
attr interpolationmode sample-hold
attr recordingmode vector
attr source guardBandStateChanged
attr title "guard band state"
attr type enum
vector 199 simpleTsn.device1.eth[0].macLayer.queue.transmissionGate[3] gateState:vector ETV
attr enum CLOSED,OPEN
attr interpolationmode sample-hold
attr recordingmode vector
attr source gateStateChanged
attr title "gate state"
attr type enum
vector 200 simpleTsn.device1.eth[0].macLayer.queue.transmissionGate[3] guardBandState:vector ETV
attr enum ON,OFF
attr interpolationmode sample-hold
attr recordingmode vector
attr source guardBandStateChanged
attr title "guard band state"
attr type enum
vector 201 simpleTsn.device1.eth[0].macLayer.queue.transmissionGate[4] gateState:vector ETV
attr enum CLOSED,OPEN
attr interpolationmode sample-hold
attr recordingmode vector
attr source gateStateChanged
attr title "gate state"
attr type enum
vector 202 simpleTsn.device1.eth[0].macLayer.queue.transmissionGate[4] guardBandState:vector ETV
attr enum ON,OFF
attr interpolationmode sample-hold
attr recordingmode vector
attr source guardBandStateChanged
attr title "guard band state"
attr type enum
vector 203 simpleTsn.device1.eth[0].macLayer.queue.transmissionGate[5] gateState:vector ETV
attr enum CLOSED,OPEN
attr interpolationmode sample-hold
attr recordingmode vector
attr source gateStateChanged
attr title "gate state"
attr type enum
vector 204 simpleTsn.device1.eth[0].macLayer.queue.transmissionGate[5] guardBandState:vector ETV
attr enum ON,OFF
attr interpolationmode sample-hold
attr recordingmode vector
attr source guardBandStateChanged
attr title "guard band state"
attr type enum
vector 205 simpleTsn.device1.eth[0].macLayer.queue.transmissionGate[6] gateState:vector ETV
attr enum CLOSED,OPEN
attr interpolationmode sample-hold
attr recordingmode vector
attr source gateStateChanged
attr title "gate state"
attr type enum
vector 206 simpleTsn.device1.eth[0].macLayer.queue.transmissionGate[6] guardBandState:vector ETV
attr enum ON,OFF
attr interpolationmode sample-hold
attr recordingmode vector
attr source guardBandStateChanged
attr title "guard band state"
attr type enum
vector 207 simpleTsn.device1.eth[0].macLayer.queue.transmissionGate[7] gateState:vector ETV
attr enum CLOSED,OPEN
attr interpolationmode sample-hold
attr recordingmode vector
attr source gateStateChanged
attr title "gate state"
attr type enum
vector 208 simpleTsn.device1.eth[0].macLayer.queue.transmissionGate[7] guardBandState:vector ETV
attr enum ON,OFF
attr interpolationmode sample-hold
attr recordingmode vector
attr source guardBandStateChanged
attr title "guard band state"
attr type enum
vector 209 simpleTsn.device2.eth[0].macLayer.queue.transmissionGate[0] gateState:vector ETV
attr enum CLOSED,OPEN
attr interpolationmode sample-hold
attr recordingmode vector
attr source gateStateChanged
attr title "gate state"
attr type enum
vector 210 simpleTsn.device2.eth[0].macLayer.queue.transmissionGate[0] guardBandState:vector ETV
attr enum ON,OFF
attr interpolationmode sample-hold
attr recordingmode vector
attr source guardBandStateChanged
attr title "guard band state"
attr type enum
vector 211 simpleTsn.device2.eth[0].macLayer.queue.transmissionGate[1] gateState:vector ETV
attr enum CLOSED,OPEN
attr interpolationmode sample-hold
attr recordingmode vector
attr source gateStateChanged
attr title "gate state"
attr type enum
vector 212 simpleTsn.device2.eth[0].macLayer.queue.transmissionGate[1] guardBandState:vector ETV
attr enum ON,OFF
attr interpolationmode sample-hold
attr recordingmode vector
attr source guardBandStateChanged
attr title "guard band state"
attr type enum
vector 213 simpleTsn.device2.eth[0].macLayer.queue.transmissionGate[2] gateState:vector ETV
attr enum CLOSED,OPEN
attr interpolationmode sample-hold
attr recordingmode vector
attr source gateStateChanged
attr title "gate state"
attr type enum
vector 214 simpleTsn.device2.eth[0].macLayer.queue.transmissionGate[2] guardBandState:vector ETV
attr enum ON,OFF
attr interpolationmode sample-hold
attr recordingmode vector
attr source guardBandStateChanged
attr title "guard band state"
attr type enum
vector 215 simpleTsn.device2.eth[0].macLayer.queue.transmissionGate[3] gateState:vector ETV
attr enum CLOSED,OPEN
attr interpolationmode sample-hold
attr recordingmode vector
attr source gateStateChanged
attr title "gate state"
attr type enum
vector 216 simpleTsn.device2.eth[0].macLayer.queue.transmissionGate[3] guardBandState:vector ETV
attr enum ON,OFF
attr interpolationmode sample-hold
attr recordingmode vector
attr source guardBandStateChanged
attr title "guard band state"
attr type enum
vector 217 simpleTsn.device2.eth[0].macLayer.queue.transmissionGate[4] gateState:vector ETV
attr enum CLOSED,OPEN
attr interpolationmode sample-hold
attr recordingmode vector
attr source gateStateChanged
attr title "gate state"
attr type enum
vector 218 simpleTsn.device2.eth[0].macLayer.queue.transmissionGate[4] guardBandState:vector ETV
attr enum ON,OFF
attr interpolationmode sample-hold
attr recordingmode vector
attr source guardBandStateChanged
attr title "guard band state"
attr type enum
vector 219 simpleTsn.device2.eth[0].macLayer.queue.transmissionGate[5] gateState:vector ETV
attr enum CLOSED,OPEN
attr interpolationmode sample-hold
attr recordingmode vector
attr source gateStateChanged
attr title "gate state"
attr type enum
vector 220 simpleTsn.device2.eth[0].macLayer.queue.transmissionGate[5] guardBandState:vector ETV
attr enum ON,OFF
attr interpolationmode sample-hold
attr recordingmode vector
attr source guardBandStateChanged
attr title "guard band state"
attr type enum
vector 221 simpleTsn.device2.eth[0].macLayer.queue.transmissionGate[6] gateState:vector ETV
attr enum CLOSED,OPEN
attr interpolationmode sample-hold
attr recordingmode vector
attr source gateStateChanged
attr title "gate state"
attr type enum
vector 222 simpleTsn.device2.eth[0].macLayer.queue.transmissionGate[6] guardBandState:vector ETV
attr enum ON,OFF
attr interpolationmode sample-hold
attr recordingmode vector
attr source guardBandStateChanged
attr title "guard band state"
attr type enum
vector 223 simpleTsn.device2.eth[0].macLayer.queue.transmissionGate[7] gateState:vector ETV
attr enum CLOSED,OPEN
attr interpolationmode sample-hold
attr recordingmode vector
attr source gateStateChanged
attr title "gate state"
attr type enum
vector 224 simpleTsn.device2.eth[0].macLayer.queue.transmissionGate[7] guardBandState:vector ETV
attr enum ON,OFF
attr interpolationmode sample-hold
attr recordingmode vector
attr source guardBandStateChanged
attr title "guard band state"
attr type enum
vector 225 simpleTsn.device3.eth[0].macLayer.queue.transmissionGate[0] gateState:vector ETV
attr enum CLOSED,OPEN
attr interpolationmode sample-hold
attr recordingmode vector
attr source gateStateChanged
attr title "gate state"
attr type enum
vector 226 simpleTsn.device3.eth[0].macLayer.queue.transmissionGate[0] guardBandState:vector ETV
attr enum ON,OFF
attr interpolationmode sample-hold
attr recordingmode vector
attr source guardBandStateChanged
attr title "guard band state"
attr type enum
vector 227 simpleTsn.device3.eth[0].macLayer.queue.transmissionGate[1] gateState:vector ETV
attr enum CLOSED,OPEN
attr interpolationmode sample-hold
attr recordingmode vector
attr source gateStateChanged
attr title "gate state"
attr type enum
vector 228 simpleTsn.device3.eth[0].macLayer.queue.transmissionGate[1] guardBandState:vector ETV
attr enum ON,OFF
attr interpolationmode sample-hold
attr recordingmode vector
attr source guardBandStateChanged
attr title "guard band state"
attr type enum
vector 229 simpleTsn.device3.eth[0].macLayer.queue.transmissionGate[2] gateState:vector ETV
attr enum CLOSED,OPEN
attr interpolationmode sample-hold
attr recordingmode vector
attr source gateStateChanged
attr title "gate state"
attr type enum
vector 230 simpleTsn.device3.eth[0].macLayer.queue.transmissionGate[2] guardBandState:vector ETV
attr enum ON,OFF
attr interpolationmode sample-hold
attr recordingmode vector
attr source guardBandStateChanged
attr title "guard band state"
attr type enum
vector 231 simpleTsn.device3.eth[0].macLayer.queue.transmissionGate[3] gateState:vector ETV
attr enum CLOSED,OPEN
attr interpolationmode sample-hold
attr recordingmode vector
attr source gateStateChanged
attr title "gate state"
attr type enum
vector 232 simpleTsn.device3.eth[0].macLayer.queue.transmissionGate[3] guardBandState:vector ETV
attr enum ON,OFF
attr interpolationmode sample-hold
attr recordingmode vector
attr source guardBandStateChanged
attr title "guard band state"
attr type enum
vector 233 simpleTsn.device3.eth[0].macLayer.queue.transmissionGate[4] gateState:vector ETV
attr enum CLOSED,OPEN
attr interpolationmode sample-hold
attr recordingmode vector
attr source gateStateChanged
attr title "gate state"
attr type enum
vector 234 simpleTsn.device3.eth[0].macLayer.queue.transmissionGate[4] guardBandState:vector ETV
attr enum ON,OFF
attr interpolationmode sample-hold
attr recordingmode vector
attr source guardBandStateChanged
attr title "guard band state"
attr type enum
vector 235 simpleTsn.device3.eth[0].macLayer.queue.transmissionGate[5] gateState:vector ETV
attr enum CLOSED,OPEN
attr interpolationmode sample-hold
attr recordingmode vector
attr source gateStateChanged
attr title "gate state"
attr type enum
vector 236 simpleTsn.device3.eth[0].macLayer.queue.transmissionGate[5] guardBandState:vector ETV
attr enum ON,OFF
attr interpolationmode sample-hold
attr recordingmode vector
attr source guardBandStateChanged
attr title "guard band state"
attr type enum
vector 237 simpleTsn.device3.eth[0].macLayer.queue.transmissionGate[6] gateState:vector ETV
attr enum CLOSED,OPEN
attr interpolationmode sample-hold
attr recordingmode vector
attr source gateStateChanged
attr title "gate state"
attr type enum
vector 238 simpleTsn.device3.eth[0].macLayer.queue.transmissionGate[6] guardBandState:vector ETV
attr enum ON,OFF
attr interpolationmode sample-hold
attr recordingmode vector
attr source guardBandStateChanged
attr title "guard band state"
attr type enum
vector 239 simpleTsn.device3.eth[0].macLayer.queue.transmissionGate[7] gateState:vector ETV
attr enum CLOSED,OPEN
attr interpolationmode sample-hold
attr recordingmode vector
attr source gateStateChanged
attr title "gate state"
attr type enum
vector 240 simpleTsn.device3.eth[0].macLayer.queue.transmissionGate[7] guardBandState:vector ETV
attr enum ON,OFF
attr interpolationmode sample-hold
attr recordingmode vector
attr source guardBandStateChanged
attr title "guard band state"
attr type enum
vector 241 simpleTsn.detCom1.dstt[0].eth[0].macLayer.queue.transmissionGate[0] gateState:vector ETV
attr enum CLOSED,OPEN
attr interpolationmode sample-hold
attr recordingmode vector
attr source gateStateChanged
attr title "gate state"
attr type enum
vector 242 simpleTsn.detCom1.dstt[0].eth[0].macLayer.queue.transmissionGate[0] guardBandState:vector ETV
attr enum ON,OFF
attr interpolationmode sample-hold
attr recordingmode vector
attr source guardBandStateChanged
attr title "guard band state"
attr type enum
vector 243 simpleTsn.detCom1.dstt[0].eth[0].macLayer.queue.transmissionGate[1] gateState:vector ETV
attr enum CLOSED,OPEN
attr interpolationmode sample-hold
attr recordingmode vector
attr source gateStateChanged
attr title "gate state"
attr type enum
vector 244 simpleTsn.detCom1.dstt[0].eth[0].macLayer.queue.transmissionGate[1] guardBandState:vector ETV
attr enum ON,OFF
attr interpolationmode sample-hold
attr recordingmode vector
attr source guardBandStateChanged
attr title "guard band state"
attr type enum
vector 245 simpleTsn.detCom1.dstt[0].eth[0].macLayer.queue.transmissionGate[2] gateState:vector ETV
attr enum CLOSED,OPEN
attr interpolationmode sample-hold
attr recordingmode vector
attr source gateStateChanged
attr title "gate state"
attr type enum
vector 246 simpleTsn.detCom1.dstt[0].eth[0].macLayer.queue.transmissionGate[2] guardBandState:vector ETV
attr enum ON,OFF
attr interpolationmode sample-hold
attr recordingmode vector
attr source guardBandStateChanged
attr title "guard band state"
attr type enum
vector 247 simpleTsn.detCom1.dstt[0].eth[0].macLayer.queue.transmissionGate[3] gateState:vector ETV
attr enum CLOSED,OPEN
attr interpolationmode sample-hold
attr recordingmode vector
attr source gateStateChanged
attr title "gate state"
attr type enum
vector 248 simpleTsn.detCom1.dstt[0].eth[0].macLayer.queue.transmissionGate[3] guardBandState:vector ETV
attr enum ON,OFF
attr interpolationmode sample-hold
attr recordingmode vector
attr source guardBandStateChanged
attr title "guard band state"
attr type enum
vector 249 simpleTsn.detCom1.dstt[0].eth[0].macLayer.queue.transmissionGate[4] gateState:vector ETV
attr enum CLOSED,OPEN
attr interpolationmode sample-hold
attr recordingmode vector
attr source gateStateChanged
attr title "gate state"
attr type enum
vector 250 simpleTsn.detCom1.dstt[0].eth[0].macLayer.queue.transmissionGate[4] guardBandState:vector ETV
attr enum ON,OFF
attr interpolationmode sample-hold
attr recordingmode vector
attr source guardBandStateChanged
attr title "guard band state"
attr type enum
vector 251 simpleTsn.detCom1.dstt[0].eth[0].macLayer.queue.transmissionGate[5] gateState:vector ETV
attr enum CLOSED,OPEN
attr interpolationmode sample-hold
attr recordingmode vector
attr source gateStateChanged
attr title "gate state"
attr type enum
vector 252 simpleTsn.detCom1.dstt[0].eth[0].macLayer.queue.transmissionGate[5] guardBandState:vector ETV
attr enum ON,OFF
attr interpolationmode sample-hold
attr recordingmode vector
attr source guardBandStateChanged
attr title "guard band state"
attr type enum
vector 253 simpleTsn.detCom1.dstt[0].eth[0].macLayer.queue.transmissionGate[6] gateState:vector ETV
attr enum CLOSED,OPEN
attr interpolationmode sample-hold
attr recordingmode vector
attr source gateStateChanged
attr title "gate state"
attr type enum
vector 254 simpleTsn.detCom1.dstt[0].eth[0].macLayer.queue.transmissionGate[6] guardBandState:vector ETV
attr enum ON,OFF
attr interpolationmode sample-hold
attr recordingmode vector
attr source guardBandStateChanged
attr title "guard band state"
attr type enum
vector 255 simpleTsn.detCom1.dstt[0].eth[0].macLayer.queue.transmissionGate[7] gateState:vector ETV
attr enum CLOSED,OPEN
attr interpolationmode sample-hold
attr recordingmode vector
attr source gateStateChanged
attr title "gate state"
attr type enum
vector 256 simpleTsn.detCom1.dstt[0].eth[0].macLayer.queue.transmissionGate[7] guardBandState:vector ETV
attr enum ON,OFF
attr interpolationmode sample-hold
attr recordingmode vector
attr source guardBandStateChanged
attr title "guard band state"
attr type enum
vector 257 simpleTsn.detCom1.dstt[0].tt[0].macLayer.queue.transmissionGate[0] gateState:vector ETV
attr enum CLOSED,OPEN
attr interpolationmode sample-hold
attr recordingmode vector
attr source gateStateChanged
attr title "gate state"
attr type enum
vector 258 simpleTsn.detCom1.dstt[0].tt[0].macLayer.queue.transmissionGate[0] guardBandState:vector ETV
attr enum ON,OFF
attr interpolationmode sample-hold
attr recordingmode vector
attr source guardBandStateChanged
attr title "guard band state"
attr type enum
vector 259 simpleTsn.detCom1.dstt[0].tt[0].macLayer.queue.transmissionGate[1] gateState:vector ETV
attr enum CLOSED,OPEN
attr interpolationmode sample-hold
attr recordingmode vector
attr source gateStateChanged
attr title "gate state"
attr type enum
vector 260 simpleTsn.detCom1.dstt[0].tt[0].macLayer.queue.transmissionGate[1] guardBandState:vector ETV
attr enum ON,OFF
attr interpolationmode sample-hold
attr recordingmode vector
attr source guardBandStateChanged
[...]
1556	2378	1.6	0
1556	2378	1.7	0
1556	2378	1.8	0
1556	2378	1.9	0
1556	2378	2	0
1556	2378	2.1	0
1556	2378	2.2	0
1556	2378	2.3	0
1556	2378	2.4	0
1556	2378	2.5	0
1556	2378	2.6	0
1556	2378	2.7	0
1556	2378	2.8	0
1556	2378	2.9	0
1556	2378	3	0
1556	2378	3.1	0
1556	2378	3.2	0
1556	2378	3.3	0
1556	2378	3.4	0
1556	2378	3.5	0
1556	2378	3.6	0
1556	2378	3.7	0
1556	2378	3.8	0
1556	2378	3.9	0
1556	2378	4	0
1557	2378	0.1	0
1557	2378	0.2	0
1557	2378	0.3	0
1557	2378	0.4	0
1557	2378	0.5	0
1557	2378	0.6	0
1557	2378	0.7	0
1557	2378	0.8	0
1557	2378	0.9	0
1557	2378	1	0
1557	2378	1.1	0
1557	2378	1.2	0
1557	2378	1.3	0
1557	2378	1.4	0
1557	2378	1.5	0
1557	2378	1.6	0
1557	2378	1.7	0
1557	2378	1.8	0
1557	2378	1.9	0
1557	2378	2	0
1557	2378	2.1	0
1557	2378	2.2	0
1557	2378	2.3	0
1557	2378	2.4	0
1557	2378	2.5	0
1557	2378	2.6	0
1557	2378	2.7	0
1557	2378	2.8	0
1557	2378	2.9	0
1557	2378	3	0
1557	2378	3.1	0
1557	2378	3.2	0
1557	2378	3.3	0
1557	2378	3.4	0
1557	2378	3.5	0
1557	2378	3.6	0
1557	2378	3.7	0
1557	2378	3.8	0
1557	2378	3.9	0
1557	2378	4	0
1558	2378	0.1	0
1558	2378	0.2	0
1558	2378	0.3	0
1558	2378	0.4	0
1558	2378	0.5	0
1558	2378	0.6	0
1558	2378	0.7	0
1558	2378	0.8	0
1558	2378	0.9	0
1558	2378	1	0
1558	2378	1.1	0
1558	2378	1.2	0
1558	2378	1.3	0
1558	2378	1.4	0
1558	2378	1.5	0
1558	2378	1.6	0
1558	2378	1.7	0
1558	2378	1.8	0
1558	2378	1.9	0
1558	2378	2	0
1558	2378	2.1	0
1558	2378	2.2	0
1558	2378	2.3	0
1558	2378	2.4	0
1558	2378	2.5	0
1558	2378	2.6	0
1558	2378	2.7	0
1558	2378	2.8	0
1558	2378	2.9	0
1558	2378	3	0
1558	2378	3.1	0
1558	2378	3.2	0
1558	2378	3.3	0
1558	2378	3.4	0
1558	2378	3.5	0
1558	2378	3.6	0
1558	2378	3.7	0
1558	2378	3.8	0
1558	2378	3.9	0
1558	2378	4	0
1559	2378	0.1	0
1559	2378	0.2	0
1559	2378	0.3	0
1559	2378	0.4	0
1559	2378	0.5	0
1559	2378	0.6	0
1559	2378	0.7	0
1559	2378	0.8	0
1559	2378	0.9	0
1559	2378	1	0
1559	2378	1.1	0
1559	2378	1.2	0
1559	2378	1.3	0
1559	2378	1.4	0
1559	2378	1.5	0
1559	2378	1.6	0
1559	2378	1.7	0
1559	2378	1.8	0
1559	2378	1.9	0
1559	2378	2	0
1559	2378	2.1	0
1559	2378	2.2	0
1559	2378	2.3	0
1559	2378	2.4	0
1559	2378	2.5	0
1559	2378	2.6	0
1559	2378	2.7	0
1559	2378	2.8	0
1559	2378	2.9	0
1559	2378	3	0
1559	2378	3.1	0
1559	2378	3.2	0
1559	2378	3.3	0
1559	2378	3.4	0
1559	2378	3.5	0
1559	2378	3.6	0
1559	2378	3.7	0
1559	2378	3.8	0
1559	2378	3.9	0
1559	2378	4	0
1560	2378	0.1	0
1560	2378	0.2	0
1560	2378	0.3	0
1560	2378	0.4	0
1560	2378	0.5	0
1560	2378	0.6	0
1560	2378	0.7	0
1560	2378	0.8	0
1560	2378	0.9	0
1560	2378	1	0
1560	2378	1.1	0
1560	2378	1.2	0
1560	2378	1.3	0
1560	2378	1.4	0
1560	2378	1.5	0
1560	2378	1.6	0
1560	2378	1.7	0
1560	2378	1.8	0
1560	2378	1.9	0
1560	2378	2	0
1560	2378	2.1	0
1560	2378	2.2	0
1560	2378	2.3	0
1560	2378	2.4	0
1560	2378	2.5	0
1560	2378	2.6	0
1560	2378	2.7	0
1560	2378	2.8	0
1560	2378	2.9	0
1560	2378	3	0
1560	2378	3.1	0
1560	2378	3.2	0
1560	2378	3.3	0
1560	2378	3.4	0
1560	2378	3.5	0
1560	2378	3.6	0
1560	2378	3.7	0
1560	2378	3.8	0
1560	2378	3.9	0
1560	2378	4	0
1561	2378	0.1	0
1561	2378	0.2	0
1561	2378	0.3	0
1561	2378	0.4	0
1561	2378	0.5	0
1561	2378	0.6	0
1561	2378	0.7	0
1561	2378	0.8	0
1561	2378	0.9	0
1561	2378	1	0
1561	2378	1.1	0
1561	2378	1.2	0
1561	2378	1.3	0
1561	2378	1.4	0
1561	2378	1.5	0
1561	2378	1.6	0
1561	2378	1.7	0
1561	2378	1.8	0
1561	2378	1.9	0
1561	2378	2	0
1561	2378	2.1	0
1561	2378	2.2	0
1561	2378	2.3	0
1561	2378	2.4	0
1561	2378	2.5	0
1561	2378	2.6	0
1561	2378	2.7	0
1561	2378	2.8	0
1561	2378	2.9	0
1561	2378	3	0
1561	2378	3.1	0
1561	2378	3.2	0
1561	2378	3.3	0
1561	2378	3.4	0
1561	2378	3.5	0
1561	2378	3.6	0
1561	2378	3.7	0
1561	2378	3.8	0
1561	2378	3.9	0
1561	2378	4	0
1562	2378	0.1	0
1562	2378	0.2	0
1562	2378	0.3	0
1562	2378	0.4	0
1562	2378	0.5	0
1562	2378	0.6	0
1562	2378	0.7	0
1562	2378	0.8	0
1562	2378	0.9	0
1562	2378	1	0
1562	2378	1.1	0
1562	2378	1.2	0
1562	2378	1.3	0
1562	2378	1.4	0
1562	2378	1.5	0
1562	2378	1.6	0
1562	2378	1.7	0
1562	2378	1.8	0
1562	2378	1.9	0
1562	2378	2	0
1562	2378	2.1	0
1562	2378	2.2	0
1562	2378	2.3	0
1562	2378	2.4	0
1562	2378	2.5	0
1562	2378	2.6	0
1562	2378	2.7	0
1562	2378	2.8	0
1562	2378	2.9	0
1562	2378	3	0
1562	2378	3.1	0
1562	2378	3.2	0
1562	2378	3.3	0
1562	2378	3.4	0
1562	2378	3.5	0
1562	2378	3.6	0
1562	2378	3.7	0
1562	2378	3.8	0
1562	2378	3.9	0
1562	2378	4	0
1563	2378	0.1	0
1563	2378	0.2	0
1563	2378	0.3	0
1563	2378	0.4	0
1563	2378	0.5	0
1563	2378	0.6	0
1563	2378	0.7	0
1563	2378	0.8	0
1563	2378	0.9	0
1563	2378	1	0
1563	2378	1.1	0
1563	2378	1.2	0
1563	2378	1.3	0
1563	2378	1.4	0
1563	2378	1.5	0
1563	2378	1.6	0
1563	2378	1.7	0
1563	2378	1.8	0
1563	2378	1.9	0
1563	2378	2	0
1563	2378	2.1	0
1563	2378	2.2	0
1563	2378	2.3	0
1563	2378	2.4	0
1563	2378	2.5	0
1563	2378	2.6	0
1563	2378	2.7	0
1563	2378	2.8	0
1563	2378	2.9	0
1563	2378	3	0
1563	2378	3.1	0
1563	2378	3.2	0
1563	2378	3.3	0
1563	2378	3.4	0
1563	2378	3.5	0
1563	2378	3.6	0
1563	2378	3.7	0
1563	2378	3.8	0
1563	2378	3.9	0
1563	2378	4	0
1564	2378	0.1	0
1564	2378	0.2	0
1564	2378	0.3	0
1564	2378	0.4	0
1564	2378	0.5	0
1564	2378	0.6	0
1564	2378	0.7	0
1564	2378	0.8	0
1564	2378	0.9	0
1564	2378	1	0
1564	2378	1.1	0
1564	2378	1.2	0
1564	2378	1.3	0
1564	2378	1.4	0
1564	2378	1.5	0
1564	2378	1.6	0
1564	2378	1.7	0
1564	2378	1.8	0
1564	2378	1.9	0
1564	2378	2	0
1564	2378	2.1	0
1564	2378	2.2	0
1564	2378	2.3	0
1564	2378	2.4	0
1564	2378	2.5	0
1564	2378	2.6	0
1564	2378	2.7	0
1564	2378	2.8	0
1564	2378	2.9	0
1564	2378	3	0
1564	2378	3.1	0
1564	2378	3.2	0
1564	2378	3.3	0
1564	2378	3.4	0
1564	2378	3.5	0
1564	2378	3.6	0
1564	2378	3.7	0
1564	2378	3.8	0
1564	2378	3.9	0
1564	2378	4	0
1565	2378	0.1	0
1565	2378	0.2	0
1565	2378	0.3	0
1565	2378	0.4	0
1565	2378	0.5	0
1565	2378	0.6	0
1565	2378	0.7	0
1565	2378	0.8	0
1565	2378	0.9	0
1565	2378	1	0
1565	2378	1.1	0
1565	2378	1.2	0
1565	2378	1.3	0
1565	2378	1.4	0
1565	2378	1.5	0
1565	2378	1.6	0
1565	2378	1.7	0
1565	2378	1.8	0
1565	2378	1.9	0
1565	2378	2	0
1565	2378	2.1	0
1565	2378	2.2	0
1565	2378	2.3	0
1565	2378	2.4	0
1565	2378	2.5	0
1565	2378	2.6	0
1565	2378	2.7	0
1565	2378	2.8	0
1565	2378	2.9	0
1565	2378	3	0
1565	2378	3.1	0
1565	2378	3.2	0
1565	2378	3.3	0
1565	2378	3.4	0
1565	2378	3.5	0
1565	2378	3.6	0
1565	2378	3.7	0
1565	2378	3.8	0
1565	2378	3.9	0
1565	2378	4	0
1566	2378	0.1	0
1566	2378	0.2	0
1566	2378	0.3	0
1566	2378	0.4	0
1566	2378	0.5	0
1566	2378	0.6	0
1566	2378	0.7	0
1566	2378	0.8	0
1566	2378	0.9	0
1566	2378	1	0
1566	2378	1.1	0
1566	2378	1.2	0
1566	2378	1.3	0
1566	2378	1.4	0
1566	2378	1.5	0
1566	2378	1.6	0
1566	2378	1.7	0
1566	2378	1.8	0
1566	2378	1.9	0
1566	2378	2	0
1566	2378	2.1	0
1566	2378	2.2	0
1566	2378	2.3	0
1566	2378	2.4	0
1566	2378	2.5	0
1566	2378	2.6	0
1566	2378	2.7	0
1566	2378	2.8	0
1566	2378	2.9	0
1566	2378	3	0
1566	2378	3.1	0
1566	2378	3.2	0
1566	2378	3.3	0
1566	2378	3.4	0
1566	2378	3.5	0
1566	2378	3.6	0
1566	2378	3.7	0
1566	2378	3.8	0
1566	2378	3.9	0
1566	2378	4	0
1567	2378	0.1	0
1567	2378	0.2	0
1567	2378	0.3	0
1567	2378	0.4	0
1567	2378	0.5	0
1567	2378	0.6	0
1567	2378	0.7	0
1567	2378	0.8	0
1567	2378	0.9	0
1567	2378	1	0
1567	2378	1.1	0
1567	2378	1.2	0
1567	2378	1.3	0
1567	2378	1.4	0
1567	2378	1.5	0
1567	2378	1.6	0
1567	2378	1.7	0
1567	2378	1.8	0
1567	2378	1.9	0
1567	2378	2	0
1567	2378	2.1	0
1567	2378	2.2	0
1567	2378	2.3	0
1567	2378	2.4	0
1567	2378	2.5	0
1567	2378	2.6	0
1567	2378	2.7	0
1567	2378	2.8	0
1567	2378	2.9	0
1567	2378	3	0
1567	2378	3.1	0
1567	2378	3.2	0
1567	2378	3.3	0
1567	2378	3.4	0
1567	2378	3.5	0
1567	2378	3.6	0
1567	2378	3.7	0
1567	2378	3.8	0
1567	2378	3.9	0
1567	2378	4	0
1568	2378	0.1	0
1568	2378	0.2	0
1568	2378	0.3	0
1568	2378	0.4	0
1568	2378	0.5	0
1568	2378	0.6	0
1568	2378	0.7	0
1568	2378	0.8	0
1568	2378	0.9	0
1568	2378	1	0
1568	2378	1.1	0
1568	2378	1.2	0
1568	2378	1.3	0
1568	2378	1.4	0
1568	2378	1.5	0
1568	2378	1.6	0
1568	2378	1.7	0
1568	2378	1.8	0
1568	2378	1.9	0
1568	2378	2	0
1568	2378	2.1	0
1568	2378	2.2	0
1568	2378	2.3	0
1568	2378	2.4	0
1568	2378	2.5	0
1568	2378	2.6	0
1568	2378	2.7	0
1568	2378	2.8	0
1568	2378	2.9	0
1568	2378	3	0
1568	2378	3.1	0
1568	2378	3.2	0
1568	2378	3.3	0
1568	2378	3.4	0
1568	2378	3.5	0
1568	2378	3.6	0
1568	2378	3.7	0
1568	2378	3.8	0
1568	2378	3.9	0
1568	2378	4	0
1569	2378	0.1	0
1569	2378	0.2	0
1569	2378	0.3	0
1569	2378	0.4	0
1569	2378	0.5	0
1569	2378	0.6	0
1569	2378	0.7	0
1569	2378	0.8	0
1569	2378	0.9	0
1569	2378	1	0
1569	2378	1.1	0
1569	2378	1.2	0
1569	2378	1.3	0
1569	2378	1.4	0
1569	2378	1.5	0
1569	2378	1.6	0
1569	2378	1.7	0
1569	2378	1.8	0
1569	2378	1.9	0
1569	2378	2	0
1569	2378	2.1	0
1569	2378	2.2	0
1569	2378	2.3	0
1569	2378	2.4	0
1569	2378	2.5	0
1569	2378	2.6	0
1569	2378	2.7	0
1569	2378	2.8	0
1569	2378	2.9	0
1569	2378	3	0
1569	2378	3.1	0
1569	2378	3.2	0
1569	2378	3.3	0
1569	2378	3.4	0
1569	2378	3.5	0
1569	2378	3.6	0
1569	2378	3.7	0
1569	2378	3.8	0
1569	2378	3.9	0
1569	2378	4	0
1570	2378	0.1	0
1570	2378	0.2	0
1570	2378	0.3	0
1570	2378	0.4	0
1570	2378	0.5	0
1570	2378	0.6	0
1570	2378	0.7	0
1570	2378	0.8	0
1570	2378	0.9	0
1570	2378	1	0
1570	2378	1.1	0
1570	2378	1.2	0
1570	2378	1.3	0
1570	2378	1.4	0
1570	2378	1.5	0
1570	2378	1.6	0
1570	2378	1.7	0
1570	2378	1.8	0
1570	2378	1.9	0
1570	2378	2	0
1570	2378	2.1	0
1570	2378	2.2	0
1570	2378	2.3	0
1570	2378	2.4	0
1570	2378	2.5	0
1570	2378	2.6	0
1570	2378	2.7	0
1570	2378	2.8	0
1570	2378	2.9	0
1570	2378	3	0
1570	2378	3.1	0
1570	2378	3.2	0
1570	2378	3.3	0
1570	2378	3.4	0
1570	2378	3.5	0
1570	2378	3.6	0
1570	2378	3.7	0
1570	2378	3.8	0
1570	2378	3.9	0
1570	2378	4	0
1571	2378	0.1	0
1571	2378	0.2	0
1571	2378	0.3	0
1571	2378	0.4	0
1571	2378	0.5	0
1571	2378	0.6	0
1571	2378	0.7	0
1571	2378	0.8	0
1571	2378	0.9	0
1571	2378	1	0
1571	2378	1.1	0
1571	2378	1.2	0
1571	2378	1.3	0
1571	2378	1.4	0
1571	2378	1.5	0
1571	2378	1.6	0
1571	2378	1.7	0
1571	2378	1.8	0
1571	2378	1.9	0
1571	2378	2	0
1571	2378	2.1	0
1571	2378	2.2	0
1571	2378	2.3	0
1571	2378	2.4	0
1571	2378	2.5	0
1571	2378	2.6	0
1571	2378	2.7	0
1571	2378	2.8	0
1571	2378	2.9	0
1571	2378	3	0
1571	2378	3.1	0
1571	2378	3.2	0
1571	2378	3.3	0
1571	2378	3.4	0
1571	2378	3.5	0
1571	2378	3.6	0
1571	2378	3.7	0
1571	2378	3.8	0
1571	2378	3.9	0
1571	2378	4	0
1572	2378	0.1	0
1572	2378	0.2	0
1572	2378	0.3	0
1572	2378	0.4	0
1572	2378	0.5	0
1572	2378	0.6	0
1572	2378	0.7	0
1572	2378	0.8	0
1572	2378	0.9	0
1572	2378	1	0
1572	2378	1.1	0
1572	2378	1.2	0
1572	2378	1.3	0
1572	2378	1.4	0
1572	2378	1.5	0
1572	2378	1.6	0
1572	2378	1.7	0
1572	2378	1.8	0
1572	2378	1.9	0
1572	2378	2	0
1572	2378	2.1	0
1572	2378	2.2	0
1572	2378	2.3	0
1572	2378	2.4	0
1572	2378	2.5	0
1572	2378	2.6	0
1572	2378	2.7	0
1572	2378	2.8	0
1572	2378	2.9	0
1572	2378	3	0
1572	2378	3.1	0
1572	2378	3.2	0
1572	2378	3.3	0
1572	2378	3.4	0
1572	2378	3.5	0
1572	2378	3.6	0
1572	2378	3.7	0
1572	2378	3.8	0
1572	2378	3.9	0
1572	2378	4	0
1573	2378	0.1	0
1573	2378	0.2	0
1573	2378	0.3	0
1573	2378	0.4	0
1573	2378	0.5	0
1573	2378	0.6	0
1573	2378	0.7	0
1573	2378	0.8	0
1573	2378	0.9	0
1573	2378	1	0
1573	2378	1.1	0
1573	2378	1.2	0
1573	2378	1.3	0
1573	2378	1.4	0
1573	2378	1.5	0
1573	2378	1.6	0
1573	2378	1.7	0
1573	2378	1.8	0
1573	2378	1.9	0
1573	2378	2	0
1573	2378	2.1	0
1573	2378	2.2	0
1573	2378	2.3	0
1573	2378	2.4	0
1573	2378	2.5	0
1573	2378	2.6	0
1573	2378	2.7	0
1573	2378	2.8	0
1573	2378	2.9	0
1573	2378	3	0
1573	2378	3.1	0
1573	2378	3.2	0
1573	2378	3.3	0
1573	2378	3.4	0
1573	2378	3.5	0
1573	2378	3.6	0
1573	2378	3.7	0
1573	2378	3.8	0
1573	2378	3.9	0
1573	2378	4	0
1574	2378	0.1	0
1574	2378	0.2	0
1574	2378	0.3	0
1574	2378	0.4	0
1574	2378	0.5	0
1574	2378	0.6	0
1574	2378	0.7	0
1574	2378	0.8	0
1574	2378	0.9	0
1574	2378	1	0
1574	2378	1.1	0
1574	2378	1.2	0
1574	2378	1.3	0
1574	2378	1.4	0
1574	2378	1.5	0
1574	2378	1.6	0
1574	2378	1.7	0
1574	2378	1.8	0
1574	2378	1.9	0
1574	2378	2	0
1574	2378	2.1	0
1574	2378	2.2	0
1574	2378	2.3	0
1574	2378	2.4	0
1574	2378	2.5	0
1574	2378	2.6	0
1574	2378	2.7	0
1574	2378	2.8	0
1574	2378	2.9	0
1574	2378	3	0
1574	2378	3.1	0
1574	2378	3.2	0
1574	2378	3.3	0
1574	2378	3.4	0
1574	2378	3.5	0
1574	2378	3.6	0
1574	2378	3.7	0
1574	2378	3.8	0
1574	2378	3.9	0
1574	2378	4	0
1575	2378	0.1	0
1575	2378	0.2	0
1575	2378	0.3	0
1575	2378	0.4	0
1575	2378	0.5	0
1575	2378	0.6	0
1575	2378	0.7	0
1575	2378	0.8	0
1575	2378	0.9	0
1575	2378	1	0
1575	2378	1.1	0
1575	2378	1.2	0
1575	2378	1.3	0
1575	2378	1.4	0
1575	2378	1.5	0
1575	2378	1.6	0
1575	2378	1.7	0
1575	2378	1.8	0
1575	2378	1.9	0
1575	2378	2	0
1575	2378	2.1	0
1575	2378	2.2	0
1575	2378	2.3	0
1575	2378	2.4	0
1575	2378	2.5	0
1575	2378	2.6	0
1575	2378	2.7	0
1575	2378	2.8	0
1575	2378	2.9	0
1575	2378	3	0
1575	2378	3.1	0
1575	2378	3.2	0
1575	2378	3.3	0
1575	2378	3.4	0
1575	2378	3.5	0
1575	2378	3.6	0
1575	2378	3.7	0
1575	2378	3.8	0
1575	2378	3.9	0
1575	2378	4	0
1576	2378	0.1	0
1576	2378	0.2	0
1576	2378	0.3	0
1576	2378	0.4	0
1576	2378	0.5	0
1576	2378	0.6	0
1576	2378	0.7	0
1576	2378	0.8	0
1576	2378	0.9	0
1576	2378	1	0
1576	2378	1.1	0
1576	2378	1.2	0
1576	2378	1.3	0
1576	2378	1.4	0
1576	2378	1.5	0
1576	2378	1.6	0
1576	2378	1.7	0
1576	2378	1.8	0
1576	2378	1.9	0
1576	2378	2	0
1576	2378	2.1	0
1576	2378	2.2	0
1576	2378	2.3	0
1576	2378	2.4	0
1576	2378	2.5	0
1576	2378	2.6	0
1576	2378	2.7	0
1576	2378	2.8	0
1576	2378	2.9	0
1576	2378	3	0
1576	2378	3.1	0
1576	2378	3.2	0
1576	2378	3.3	0
1576	2378	3.4	0
1576	2378	3.5	0
1576	2378	3.6	0
1576	2378	3.7	0
1576	2378	3.8	0
1576	2378	3.9	0
1576	2378	4	0
1577	2378	0.1	0
1577	2378	0.2	0
1577	2378	0.3	0
1577	2378	0.4	0
1577	2378	0.5	0
1577	2378	0.6	0
1577	2378	0.7	0
1577	2378	0.8	0
1577	2378	0.9	0
1577	2378	1	0
1577	2378	1.1	0
1577	2378	1.2	0
1577	2378	1.3	0
1577	2378	1.4	0
1577	2378	1.5	0
1577	2378	1.6	0
1577	2378	1.7	0
1577	2378	1.8	0
1577	2378	1.9	0
1577	2378	2	0
1577	2378	2.1	0
1577	2378	2.2	0
1577	2378	2.3	0
1577	2378	2.4	0
1577	2378	2.5	0
1577	2378	2.6	0
1577	2378	2.7	0
1577	2378	2.8	0
1577	2378	2.9	0
1577	2378	3	0
1577	2378	3.1	0
1577	2378	3.2	0
1577	2378	3.3	0
1577	2378	3.4	0
1577	2378	3.5	0
1577	2378	3.6	0
1577	2378	3.7	0
1577	2378	3.8	0
1577	2378	3.9	0
1577	2378	4	0
1578	2378	0.1	0
1578	2378	0.2	0
1578	2378	0.3	0
1578	2378	0.4	0
1578	2378	0.5	0
1578	2378	0.6	0
1578	2378	0.7	0
1578	2378	0.8	0
1578	2378	0.9	0
1578	2378	1	0
1578	2378	1.1	0
1578	2378	1.2	0
1578	2378	1.3	0
1578	2378	1.4	0
1578	2378	1.5	0
1578	2378	1.6	0
1578	2378	1.7	0
1578	2378	1.8	0
1578	2378	1.9	0
1578	2378	2	0
1578	2378	2.1	0
1578	2378	2.2	0
1578	2378	2.3	0
1578	2378	2.4	0
1578	2378	2.5	0
1578	2378	2.6	0
1578	2378	2.7	0
1578	2378	2.8	0
1578	2378	2.9	0
1578	2378	3	0
1578	2378	3.1	0
1578	2378	3.2	0
1578	2378	3.3	0
1578	2378	3.4	0
1578	2378	3.5	0
1578	2378	3.6	0
1578	2378	3.7	0
1578	2378	3.8	0
1578	2378	3.9	0
1578	2378	4	0
1579	2378	0.1	0
1579	2378	0.2	0
1579	2378	0.3	0
1579	2378	0.4	0
1579	2378	0.5	0
1579	2378	0.6	0
1579	2378	0.7	0
1579	2378	0.8	0
1579	2378	0.9	0
1579	2378	1	0
1579	2378	1.1	0
1579	2378	1.2	0
1579	2378	1.3	0
1579	2378	1.4	0
1579	2378	1.5	0
1579	2378	1.6	0
1579	2378	1.7	0
1579	2378	1.8	0
1579	2378	1.9	0
1579	2378	2	0
1579	2378	2.1	0
1579	2378	2.2	0
1579	2378	2.3	0
1579	2378	2.4	0
1579	2378	2.5	0
1579	2378	2.6	0
1579	2378	2.7	0
1579	2378	2.8	0
1579	2378	2.9	0
1579	2378	3	0
1579	2378	3.1	0
1579	2378	3.2	0
1579	2378	3.3	0
1579	2378	3.4	0
1579	2378	3.5	0
1579	2378	3.6	0
1579	2378	3.7	0
1579	2378	3.8	0
1579	2378	3.9	0
1579	2378	4	0
1580	2378	0.1	0
1580	2378	0.2	0
1580	2378	0.3	0
1580	2378	0.4	0
1580	2378	0.5	0
1580	2378	0.6	0
1580	2378	0.7	0
1580	2378	0.8	0
1580	2378	0.9	0
1580	2378	1	0
1580	2378	1.1	0
1580	2378	1.2	0
1580	2378	1.3	0
1580	2378	1.4	0
1580	2378	1.5	0
1580	2378	1.6	0
1580	2378	1.7	0
1580	2378	1.8	0
1580	2378	1.9	0
1580	2378	2	0
1580	2378	2.1	0
1580	2378	2.2	0
1580	2378	2.3	0
1580	2378	2.4	0
1580	2378	2.5	0
1580	2378	2.6	0
1580	2378	2.7	0
1580	2378	2.8	0
1580	2378	2.9	0
1580	2378	3	0
1580	2378	3.1	0
1580	2378	3.2	0
1580	2378	3.3	0
1580	2378	3.4	0
1580	2378	3.5	0
1580	2378	3.6	0
1580	2378	3.7	0
1580	2378	3.8	0
1580	2378	3.9	0
1580	2378	4	0
1581	2378	0.1	0
1581	2378	0.2	0
1581	2378	0.3	0
1581	2378	0.4	0
1581	2378	0.5	0
1581	2378	0.6	0
1581	2378	0.7	0
1581	2378	0.8	0
1581	2378	0.9	0
1581	2378	1	0
1581	2378	1.1	0
1581	2378	1.2	0
1581	2378	1.3	0
1581	2378	1.4	0
1581	2378	1.5	0
1581	2378	1.6	0
1581	2378	1.7	0
1581	2378	1.8	0
1581	2378	1.9	0
1581	2378	2	0
1581	2378	2.1	0
1581	2378	2.2	0
1581	2378	2.3	0
1581	2378	2.4	0
1581	2378	2.5	0
1581	2378	2.6	0
1581	2378	2.7	0
1581	2378	2.8	0
1581	2378	2.9	0
1581	2378	3	0
1581	2378	3.1	0
1581	2378	3.2	0
1581	2378	3.3	0
1581	2378	3.4	0
1581	2378	3.5	0
1581	2378	3.6	0
1581	2378	3.7	0
1581	2378	3.8	0
1581	2378	3.9	0
1581	2378	4	0
1582	2378	0.1	0
1582	2378	0.2	0
1582	2378	0.3	0
1582	2378	0.4	0
1582	2378	0.5	0
1582	2378	0.6	0
1582	2378	0.7	0
1582	2378	0.8	0
1582	2378	0.9	0
1582	2378	1	0
1582	2378	1.1	0
1582	2378	1.2	0
1582	2378	1.3	0
1582	2378	1.4	0
1582	2378	1.5	0
1582	2378	1.6	0
1582	2378	1.7	0
1582	2378	1.8	0
1582	2378	1.9	0
1582	2378	2	0
1582	2378	2.1	0
1582	2378	2.2	0
1582	2378	2.3	0
1582	2378	2.4	0
1582	2378	2.5	0
1582	2378	2.6	0
1582	2378	2.7	0
1582	2378	2.8	0
1582	2378	2.9	0
1582	2378	3	0
1582	2378	3.1	0
1582	2378	3.2	0
1582	2378	3.3	0
1582	2378	3.4	0
1582	2378	3.5	0
1582	2378	3.6	0
1582	2378	3.7	0
1582	2378	3.8	0
1582	2378	3.9	0
1582	2378	4	0
1583	2378	0.1	0
1583	2378	0.2	0
1583	2378	0.3	0
1583	2378	0.4	0
1583	2378	0.5	0
1583	2378	0.6	0
1583	2378	0.7	0
1583	2378	0.8	0
1583	2378	0.9	0
1583	2378	1	0
1583	2378	1.1	0
1583	2378	1.2	0
1583	2378	1.3	0
1583	2378	1.4	0
1583	2378	1.5	0
1583	2378	1.6	0
1583	2378	1.7	0
1583	2378	1.8	0
1583	2378	1.9	0
1583	2378	2	0
1583	2378	2.1	0
1583	2378	2.2	0
1583	2378	2.3	0
1583	2378	2.4	0
1583	2378	2.5	0
1583	2378	2.6	0
1583	2378	2.7	0
1583	2378	2.8	0
1583	2378	2.9	0
1583	2378	3	0
1583	2378	3.1	0
1583	2378	3.2	0
1583	2378	3.3	0
1583	2378	3.4	0
1583	2378	3.5	0
1583	2378	3.6	0
1583	2378	3.7	0
1583	2378	3.8	0
1583	2378	3.9	0
1583	2378	4	0
1584	2378	0.1	0
1584	2378	0.2	0
1584	2378	0.3	0
1584	2378	0.4	0
1584	2378	0.5	0
1584	2378	0.6	0
1584	2378	0.7	0
1584	2378	0.8	0
1584	2378	0.9	0
1584	2378	1	0
1584	2378	1.1	0
1584	2378	1.2	0
1584	2378	1.3	0
1584	2378	1.4	0
1584	2378	1.5	0
1584	2378	1.6	0
1584	2378	1.7	0
1584	2378	1.8	0
1584	2378	1.9	0
1584	2378	2	0
1584	2378	2.1	0
1584	2378	2.2	0
1584	2378	2.3	0
1584	2378	2.4	0
1584	2378	2.5	0
1584	2378	2.6	0
1584	2378	2.7	0
1584	2378	2.8	0
1584	2378	2.9	0
1584	2378	3	0
1584	2378	3.1	0
1584	2378	3.2	0
1584	2378	3.3	0
1584	2378	3.4	0
1584	2378	3.5	0
1584	2378	3.6	0
1584	2378	3.7	0
1584	2378	3.8	0
1584	2378	3.9	0
1584	2378	4	0
1585	2378	0.1	0
1585	2378	0.2	0
1585	2378	0.3	0
1585	2378	0.4	0
1585	2378	0.5	0
1585	2378	0.6	0
1585	2378	0.7	0
1585	2378	0.8	0
1585	2378	0.9	0
1585	2378	1	0
1585	2378	1.1	0
1585	2378	1.2	0
1585	2378	1.3	0
1585	2378	1.4	0
1585	2378	1.5	0
1585	2378	1.6	0
1585	2378	1.7	0
1585	2378	1.8	0
1585	2378	1.9	0
1585	2378	2	0
1585	2378	2.1	0
1585	2378	2.2	0
1585	2378	2.3	0
1585	2378	2.4	0
1585	2378	2.5	0
1585	2378	2.6	0
1585	2378	2.7	0
1585	2378	2.8	0
1585	2378	2.9	0
1585	2378	3	0
1585	2378	3.1	0
1585	2378	3.2	0
1585	2378	3.3	0
1585	2378	3.4	0
1585	2378	3.5	0
1585	2378	3.6	0
1585	2378	3.7	0
1585	2378	3.8	0
1585	2378	3.9	0
1585	2378	4	0
1586	2378	0.1	0
1586	2378	0.2	0
1586	2378	0.3	0
1586	2378	0.4	0
1586	2378	0.5	0
1586	2378	0.6	0
1586	2378	0.7	0
1586	2378	0.8	0
1586	2378	0.9	0
1586	2378	1	0
1586	2378	1.1	0
1586	2378	1.2	0
1586	2378	1.3	0
1586	2378	1.4	0
1586	2378	1.5	0
1586	2378	1.6	0
1586	2378	1.7	0
1586	2378	1.8	0
1586	2378	1.9	0
1586	2378	2	0
1586	2378	2.1	0
1586	2378	2.2	0
1586	2378	2.3	0
1586	2378	2.4	0
1586	2378	2.5	0
1586	2378	2.6	0
1586	2378	2.7	0
1586	2378	2.8	0
1586	2378	2.9	0
1586	2378	3	0
1586	2378	3.1	0
1586	2378	3.2	0
1586	2378	3.3	0
1586	2378	3.4	0
1586	2378	3.5	0
1586	2378	3.6	0
1586	2378	3.7	0
1586	2378	3.8	0
1586	2378	3.9	0
1586	2378	4	0
1587	2378	0.1	0
1587	2378	0.2	0
1587	2378	0.3	0
1587	2378	0.4	0
1587	2378	0.5	0
1587	2378	0.6	0
1587	2378	0.7	0
1587	2378	0.8	0
1587	2378	0.9	0
1587	2378	1	0
1587	2378	1.1	0
1587	2378	1.2	0
1587	2378	1.3	0
1587	2378	1.4	0
1587	2378	1.5	0
1587	2378	1.6	0
1587	2378	1.7	0
1587	2378	1.8	0
1587	2378	1.9	0
1587	2378	2	0
1587	2378	2.1	0
1587	2378	2.2	0
1587	2378	2.3	0
1587	2378	2.4	0
1587	2378	2.5	0
1587	2378	2.6	0
1587	2378	2.7	0
1587	2378	2.8	0
1587	2378	2.9	0
1587	2378	3	0
1587	2378	3.1	0
1587	2378	3.2	0
1587	2378	3.3	0
1587	2378	3.4	0
1587	2378	3.5	0
1587	2378	3.6	0
1587	2378	3.7	0
1587	2378	3.8	0
1587	2378	3.9	0
1587	2378	4	0

