file 1512534 1748035685                                         
version 3
run General-0-20250523-21:28:01-18629
attr configname General
attr datetime 20250523-21:28:01
attr datetimef 20250523-212801
attr experiment General
attr inifile omnetpp.ini
attr iterationvars ""
attr iterationvarsd ""
attr iterationvarsf ""
attr measurement ""
attr network simpleTsn
attr processid 18629
attr repetition 0
attr replication #0
attr resultdir results
attr runnumber 0
attr seedset 0
config image-path ../../../inet/images
config sim-time-limit 4s
config description "General configuration"
config network simpleTsn
config **.displayGateSchedules false
config **.gateScheduleVisualizer.height 14
config **.gateScheduleVisualizer.placementHint "\"bottom\""
config *.scenarioManager.script "xmldoc(\"scenario.xml\")"
config *.histogramContainer.histograms "{Uplink: \"../../../deterministic6g_data/PD-Wireless-5G-1/s1-UL_wall.xml\", Downlink: \"../../../deterministic6g_data/PD-Wireless-5G-1/s10-DL_wall.xml\"}"
config *.detCom1.delayConfig "xmldoc(\"delays1.xml\")"
config *.detCom2.delayConfig "xmldoc(\"delays2.xml\")"
config *.*.eth[*].bitrate 100Mbps
config *.*.*.eth[*].bitrate 100Mbps
config network simpleTsn
config *.device1.numApps 1
config *.device1.app[0].typename SimpleUdpSourceApp
config *.device1.app[0].display-name stream1
config *.device1.app[0].streamId "\"1\""
config *.device1.app[0].max_latency 500
config *.device1.app[0].priority 4
config *.device1.app[0].gamma 0
config *.device1.app[0].max_jitter 10
config *.device1.app[0].io.destAddress "\"device2\""
config *.device1.app[0].io.destPort 1001
config *.device1.app[0].source.packetLength "1000B - 54B"
config *.device1.app[0].source.productionInterval 20ms
config *.device1.app[0].source.initialProductionOffset 1s
config *.device2.numApps 2
config *.device2.app[0].typename SimpleUdpSinkApp
config *.device2.app[0].io.localPort 1001
config *.device2.app[1].typename SimpleUdpSinkApp
config *.device2.app[1].io.localPort 1002
config *.device3.numApps 1
config *.device3.app[0].typename SimpleUdpSourceApp
config *.device3.app[0].display-name stream2
config *.device3.app[0].streamId "\"2\""
config *.device3.app[0].max_latency 300.0
config *.device3.app[0].priority 4
config *.device3.app[0].gamma 0
config *.device3.app[0].max_jitter 10
config *.device3.app[0].io.destAddress "\"device2\""
config *.device3.app[0].io.destPort 1002
config *.device3.app[0].source.packetLength "1000B - 54B"
config *.device3.app[0].source.productionInterval 100ms
config *.device3.app[0].source.initialProductionOffset 30s
config *.device1.app[0].source.streamingEnabled false
config *.device3.app[0].source.streamingEnabled false
config **.streamIdentifier.identifier.mapping "[{stream: \"stream1\", packetFilter: expr(udp.destPort == 1001)}, \n\t\t\t\t\t\t\t\t\t\t  {stream: \"stream2\", packetFilter: expr(udp.destPort == 1002)}]"
config **.streamCoder.*.mapping "[{stream: \"stream1\", pcp: 4, vlan: 1},\n\t\t\t\t\t\t\t{stream: \"stream2\", pcp: 4, vlan: 1}]"
config *.bridge*.bridging.directionReverser.reverser.excludeEncapsulationProtocols "[\"ieee8021qctag\"]"
config *.bridge*.ieee8021q.qTagHeaderChecker.vlanIdFilter [1,5]
config *.bridge*.eth[*].macLayer.queue.*[0].display-name "best effort"
config *.bridge*.eth[*].macLayer.queue.*[1].display-name video
config *.bridge*.eth[*].macLayer.queue.*[2].display-name control
config *.bridge*.eth[*].macLayer.queue.*[3].display-name p3
config *.bridge*.eth[*].macLayer.queue.*[4].display-name p4
config *.bridge*.eth[*].macLayer.queue.*[5].display-name p5
config *.bridge*.eth[*].macLayer.queue.*[6].display-name p6
config *.bridge*.eth[*].macLayer.queue.*[7].display-name p7
config *.macForwardingTableConfigurator.typename ""
config **.bridge1.macTable.forwardingTable "[{address: \"device2\", vlan: 1, interface: \"eth1\"}]"
config **.bridge2.macTable.forwardingTable "[{address: \"device2\", vlan: 1, interface: \"eth0\"}]"
config **.bridge3.macTable.forwardingTable "[{address: \"device2\", vlan: 1, interface: \"eth2\"}]"
config network simpleTsn
config *.tsnController.gateScheduleConfigurator.typename wTSNGateScheduleConfigurator
config *.tsnController.gateScheduleConfigurator.gateCycleDuration 1ms
config *.tsnController.gateScheduleConfigurator.configuration "[\n\t{name:\"stream1\", pcp:4, gateIndex:4, application:\"app[0]\", source:\"device1\", destination:\"device2\", packetLength: 1000B - 54B, packetInterval:20ms,  gamma:1, maxJitter:5ms, maxLatency: 500us, flowStartTime:3s, flowEndTime:5s},\n\t{name:\"stream2\", pcp:4, gateIndex:4, application:\"app[0]\", source:\"device3\", destination:\"device2\", packetLength: 1000B - 54B, packetInterval:100ms, gamma:1, maxJitter:5ms, maxLatency: 300us, flowStartTime:6s, flowEndTime:100s}]"

vector 0 simpleTsn.bridge1.eth[0].phyLayer.interFrameGapInserter interpacketGap:vector ETV
attr interpolationmode sample-hold
attr recordingmode vector
attr source "count(interpacketGapStarted) - count(interpacketGapEnded)"
attr title "interpacket gap state"
attr type int
vector 1 simpleTsn.bridge1.eth[0].phyLayer.transmitter transmitting:vector ETV
attr interpolationmode sample-hold
attr recordingmode vector
attr source "count(transmissionStarted) - count(transmissionEnded)"
attr title "transmitting state"
attr type int
vector 2 simpleTsn.bridge1.eth[1].phyLayer.interFrameGapInserter interpacketGap:vector ETV
attr interpolationmode sample-hold
attr recordingmode vector
attr source "count(interpacketGapStarted) - count(interpacketGapEnded)"
attr title "interpacket gap state"
attr type int
vector 3 simpleTsn.bridge1.eth[1].phyLayer.transmitter transmitting:vector ETV
attr interpolationmode sample-hold
attr recordingmode vector
attr source "count(transmissionStarted) - count(transmissionEnded)"
attr title "transmitting state"
attr type int
vector 4 simpleTsn.bridge1.eth[2].phyLayer.interFrameGapInserter interpacketGap:vector ETV
attr interpolationmode sample-hold
attr recordingmode vector
attr source "count(interpacketGapStarted) - count(interpacketGapEnded)"
attr title "interpacket gap state"
attr type int
vector 5 simpleTsn.bridge1.eth[2].phyLayer.transmitter transmitting:vector ETV
attr interpolationmode sample-hold
attr recordingmode vector
attr source "count(transmissionStarted) - count(transmissionEnded)"
attr title "transmitting state"
attr type int
vector 6 simpleTsn.bridge2.eth[0].phyLayer.interFrameGapInserter interpacketGap:vector ETV
attr interpolationmode sample-hold
attr recordingmode vector
attr source "count(interpacketGapStarted) - count(interpacketGapEnded)"
attr title "interpacket gap state"
attr type int
vector 7 simpleTsn.bridge2.eth[0].phyLayer.transmitter transmitting:vector ETV
attr interpolationmode sample-hold
attr recordingmode vector
attr source "count(transmissionStarted) - count(transmissionEnded)"
attr title "transmitting state"
attr type int
vector 8 simpleTsn.bridge2.eth[1].phyLayer.interFrameGapInserter interpacketGap:vector ETV
attr interpolationmode sample-hold
attr recordingmode vector
attr source "count(interpacketGapStarted) - count(interpacketGapEnded)"
attr title "interpacket gap state"
attr type int
vector 9 simpleTsn.bridge2.eth[1].phyLayer.transmitter transmitting:vector ETV
attr interpolationmode sample-hold
attr recordingmode vector
attr source "count(transmissionStarted) - count(transmissionEnded)"
attr title "transmitting state"
attr type int
vector 10 simpleTsn.bridge2.eth[2].phyLayer.interFrameGapInserter interpacketGap:vector ETV
attr interpolationmode sample-hold
attr recordingmode vector
attr source "count(interpacketGapStarted) - count(interpacketGapEnded)"
attr title "interpacket gap state"
attr type int
vector 11 simpleTsn.bridge2.eth[2].phyLayer.transmitter transmitting:vector ETV
attr interpolationmode sample-hold
attr recordingmode vector
attr source "count(transmissionStarted) - count(transmissionEnded)"
attr title "transmitting state"
attr type int
vector 12 simpleTsn.bridge3.eth[0].phyLayer.interFrameGapInserter interpacketGap:vector ETV
attr interpolationmode sample-hold
attr recordingmode vector
attr source "count(interpacketGapStarted) - count(interpacketGapEnded)"
attr title "interpacket gap state"
attr type int
vector 13 simpleTsn.bridge3.eth[0].phyLayer.transmitter transmitting:vector ETV
attr interpolationmode sample-hold
attr recordingmode vector
attr source "count(transmissionStarted) - count(transmissionEnded)"
attr title "transmitting state"
attr type int
vector 14 simpleTsn.bridge3.eth[1].phyLayer.interFrameGapInserter interpacketGap:vector ETV
attr interpolationmode sample-hold
attr recordingmode vector
attr source "count(interpacketGapStarted) - count(interpacketGapEnded)"
attr title "interpacket gap state"
attr type int
vector 15 simpleTsn.bridge3.eth[1].phyLayer.transmitter transmitting:vector ETV
attr interpolationmode sample-hold
attr recordingmode vector
attr source "count(transmissionStarted) - count(transmissionEnded)"
attr title "transmitting state"
attr type int
vector 16 simpleTsn.bridge3.eth[2].phyLayer.interFrameGapInserter interpacketGap:vector ETV
attr interpolationmode sample-hold
attr recordingmode vector
attr source "count(interpacketGapStarted) - count(interpacketGapEnded)"
attr title "interpacket gap state"
attr type int
vector 17 simpleTsn.bridge3.eth[2].phyLayer.transmitter transmitting:vector ETV
attr interpolationmode sample-hold
attr recordingmode vector
attr source "count(transmissionStarted) - count(transmissionEnded)"
attr title "transmitting state"
attr type int
vector 18 simpleTsn.device1.eth[0].phyLayer.interFrameGapInserter interpacketGap:vector ETV
attr interpolationmode sample-hold
attr recordingmode vector
attr source "count(interpacketGapStarted) - count(interpacketGapEnded)"
attr title "interpacket gap state"
attr type int
vector 19 simpleTsn.device1.eth[0].phyLayer.transmitter transmitting:vector ETV
attr interpolationmode sample-hold
attr recordingmode vector
attr source "count(transmissionStarted) - count(transmissionEnded)"
attr title "transmitting state"
attr type int
vector 20 simpleTsn.device1.udp passedUpPk:vector(count) ETV
attr interpolationmode none
attr recordingmode vector(count)
attr source packetSentToUpper
attr title "packets passed up, count"
vector 21 simpleTsn.device1.udp droppedPkWrongPort:vector(count) ETV
attr interpolationmode none
attr recordingmode vector(count)
attr source packetDropReasonIsNoPortFound(packetDropped)
attr title "packets dropped (wrong port), count"
vector 22 simpleTsn.device1.udp droppedPkBadChecksum:vector(count) ETV
attr interpolationmode none
attr recordingmode vector(count)
attr source packetDropReasonIsIncorrectlyReceived(packetDropped)
attr title "packets dropped (checksum error), count"
vector 23 simpleTsn.device2.eth[0].phyLayer.interFrameGapInserter interpacketGap:vector ETV
attr interpolationmode sample-hold
attr recordingmode vector
attr source "count(interpacketGapStarted) - count(interpacketGapEnded)"
attr title "interpacket gap state"
attr type int
vector 24 simpleTsn.device2.eth[0].phyLayer.transmitter transmitting:vector ETV
attr interpolationmode sample-hold
attr recordingmode vector
attr source "count(transmissionStarted) - count(transmissionEnded)"
attr title "transmitting state"
attr type int
vector 25 simpleTsn.device2.udp passedUpPk:vector(count) ETV
attr interpolationmode none
attr recordingmode vector(count)
attr source packetSentToUpper
attr title "packets passed up, count"
vector 26 simpleTsn.device2.udp droppedPkWrongPort:vector(count) ETV
attr interpolationmode none
attr recordingmode vector(count)
attr source packetDropReasonIsNoPortFound(packetDropped)
attr title "packets dropped (wrong port), count"
vector 27 simpleTsn.device2.udp droppedPkBadChecksum:vector(count) ETV
attr interpolationmode none
attr recordingmode vector(count)
attr source packetDropReasonIsIncorrectlyReceived(packetDropped)
attr title "packets dropped (checksum error), count"
vector 28 simpleTsn.device3.eth[0].phyLayer.interFrameGapInserter interpacketGap:vector ETV
attr interpolationmode sample-hold
attr recordingmode vector
attr source "count(interpacketGapStarted) - count(interpacketGapEnded)"
attr title "interpacket gap state"
attr type int
vector 29 simpleTsn.device3.eth[0].phyLayer.transmitter transmitting:vector ETV
attr interpolationmode sample-hold
attr recordingmode vector
attr source "count(transmissionStarted) - count(transmissionEnded)"
attr title "transmitting state"
attr type int
vector 30 simpleTsn.device3.udp passedUpPk:vector(count) ETV
attr interpolationmode none
attr recordingmode vector(count)
attr source packetSentToUpper
attr title "packets passed up, count"
vector 31 simpleTsn.device3.udp droppedPkWrongPort:vector(count) ETV
attr interpolationmode none
attr recordingmode vector(count)
attr source packetDropReasonIsNoPortFound(packetDropped)
attr title "packets dropped (wrong port), count"
vector 32 simpleTsn.device3.udp droppedPkBadChecksum:vector(count) ETV
attr interpolationmode none
attr recordingmode vector(count)
attr source packetDropReasonIsIncorrectlyReceived(packetDropped)
attr title "packets dropped (checksum error), count"
vector 33 simpleTsn.detCom1.dstt[0].eth[0].phyLayer.interFrameGapInserter interpacketGap:vector ETV
attr interpolationmode sample-hold
attr recordingmode vector
attr source "count(interpacketGapStarted) - count(interpacketGapEnded)"
attr title "interpacket gap state"
attr type int
vector 34 simpleTsn.detCom1.dstt[0].eth[0].phyLayer.transmitter transmitting:vector ETV
attr interpolationmode sample-hold
attr recordingmode vector
attr source "count(transmissionStarted) - count(transmissionEnded)"
attr title "transmitting state"
attr type int
vector 35 simpleTsn.detCom1.dstt[0].tt[0].phyLayer.interFrameGapInserter interpacketGap:vector ETV
attr interpolationmode sample-hold
attr recordingmode vector
attr source "count(interpacketGapStarted) - count(interpacketGapEnded)"
attr title "interpacket gap state"
attr type int
vector 36 simpleTsn.detCom1.dstt[0].tt[0].phyLayer.transmitter transmitting:vector ETV
attr interpolationmode sample-hold
attr recordingmode vector
attr source "count(transmissionStarted) - count(transmissionEnded)"
attr title "transmitting state"
attr type int
vector 37 simpleTsn.detCom1.nwtt.eth[0].phyLayer.interFrameGapInserter interpacketGap:vector ETV
attr interpolationmode sample-hold
attr recordingmode vector
attr source "count(interpacketGapStarted) - count(interpacketGapEnded)"
attr title "interpacket gap state"
attr type int
vector 38 simpleTsn.detCom1.nwtt.eth[0].phyLayer.transmitter transmitting:vector ETV
attr interpolationmode sample-hold
attr recordingmode vector
attr source "count(transmissionStarted) - count(transmissionEnded)"
attr title "transmitting state"
attr type int
vector 39 simpleTsn.detCom1.nwtt.tt[0].phyLayer.interFrameGapInserter interpacketGap:vector ETV
attr interpolationmode sample-hold
attr recordingmode vector
attr source "count(interpacketGapStarted) - count(interpacketGapEnded)"
attr title "interpacket gap state"
attr type int
vector 40 simpleTsn.detCom1.nwtt.tt[0].phyLayer.transmitter transmitting:vector ETV
attr interpolationmode sample-hold
attr recordingmode vector
attr source "count(transmissionStarted) - count(transmissionEnded)"
attr title "transmitting state"
attr type int
vector 41 simpleTsn.detCom2.dstt[0].eth[0].phyLayer.interFrameGapInserter interpacketGap:vector ETV
attr interpolationmode sample-hold
attr recordingmode vector
attr source "count(interpacketGapStarted) - count(interpacketGapEnded)"
attr title "interpacket gap state"
attr type int
vector 42 simpleTsn.detCom2.dstt[0].eth[0].phyLayer.transmitter transmitting:vector ETV
attr interpolationmode sample-hold
attr recordingmode vector
attr source "count(transmissionStarted) - count(transmissionEnded)"
attr title "transmitting state"
attr type int
vector 43 simpleTsn.detCom2.dstt[0].tt[0].phyLayer.interFrameGapInserter interpacketGap:vector ETV
attr interpolationmode sample-hold
attr recordingmode vector
attr source "count(interpacketGapStarted) - count(interpacketGapEnded)"
attr title "interpacket gap state"
attr type int
vector 44 simpleTsn.detCom2.dstt[0].tt[0].phyLayer.transmitter transmitting:vector ETV
attr interpolationmode sample-hold
attr recordingmode vector
attr source "count(transmissionStarted) - count(transmissionEnded)"
attr title "transmitting state"
attr type int
vector 45 simpleTsn.detCom2.nwtt.eth[0].phyLayer.interFrameGapInserter interpacketGap:vector ETV
attr interpolationmode sample-hold
attr recordingmode vector
attr source "count(interpacketGapStarted) - count(interpacketGapEnded)"
attr title "interpacket gap state"
attr type int
vector 46 simpleTsn.detCom2.nwtt.eth[0].phyLayer.transmitter transmitting:vector ETV
attr interpolationmode sample-hold
attr recordingmode vector
attr source "count(transmissionStarted) - count(transmissionEnded)"
attr title "transmitting state"
attr type int
vector 47 simpleTsn.detCom2.nwtt.tt[0].phyLayer.interFrameGapInserter interpacketGap:vector ETV
attr interpolationmode sample-hold
attr recordingmode vector
attr source "count(interpacketGapStarted) - count(interpacketGapEnded)"
attr title "interpacket gap state"
attr type int
vector 48 simpleTsn.detCom2.nwtt.tt[0].phyLayer.transmitter transmitting:vector ETV
attr interpolationmode sample-hold
attr recordingmode vector
attr source "count(transmissionStarted) - count(transmissionEnded)"
attr title "transmitting state"
attr type int
vector 49 simpleTsn.bridge1.eth[0].macLayer.queue.transmissionGate[0] gateState:vector ETV
attr enum CLOSED,OPEN
attr interpolationmode sample-hold
attr moduledisplaypath "simpleTsn.bridge1.eth[0].macLayer.queue.best effort"
attr recordingmode vector
attr source gateStateChanged
attr title "gate state"
attr type enum
vector 50 simpleTsn.bridge1.eth[0].macLayer.queue.transmissionGate[0] guardBandState:vector ETV
attr enum ON,OFF
attr interpolationmode sample-hold
attr moduledisplaypath "simpleTsn.bridge1.eth[0].macLayer.queue.best effort"
attr recordingmode vector
attr source guardBandStateChanged
attr title "guard band state"
attr type enum
vector 51 simpleTsn.bridge1.eth[0].macLayer.queue.transmissionGate[1] gateState:vector ETV
attr enum CLOSED,OPEN
attr interpolationmode sample-hold
attr moduledisplaypath simpleTsn.bridge1.eth[0].macLayer.queue.video
attr recordingmode vector
attr source gateStateChanged
attr title "gate state"
attr type enum
vector 52 simpleTsn.bridge1.eth[0].macLayer.queue.transmissionGate[1] guardBandState:vector ETV
attr enum ON,OFF
attr interpolationmode sample-hold
attr moduledisplaypath simpleTsn.bridge1.eth[0].macLayer.queue.video
attr recordingmode vector
attr source guardBandStateChanged
attr title "guard band state"
attr type enum
vector 53 simpleTsn.bridge1.eth[0].macLayer.queue.transmissionGate[2] gateState:vector ETV
attr enum CLOSED,OPEN
attr interpolationmode sample-hold
attr moduledisplaypath simpleTsn.bridge1.eth[0].macLayer.queue.control
attr recordingmode vector
attr source gateStateChanged
attr title "gate state"
attr type enum
vector 54 simpleTsn.bridge1.eth[0].macLayer.queue.transmissionGate[2] guardBandState:vector ETV
attr enum ON,OFF
attr interpolationmode sample-hold
attr moduledisplaypath simpleTsn.bridge1.eth[0].macLayer.queue.control
attr recordingmode vector
attr source guardBandStateChanged
attr title "guard band state"
attr type enum
vector 55 simpleTsn.bridge1.eth[0].macLayer.queue.transmissionGate[3] gateState:vector ETV
attr enum CLOSED,OPEN
attr interpolationmode sample-hold
attr moduledisplaypath simpleTsn.bridge1.eth[0].macLayer.queue.p3
attr recordingmode vector
attr source gateStateChanged
attr title "gate state"
attr type enum
vector 56 simpleTsn.bridge1.eth[0].macLayer.queue.transmissionGate[3] guardBandState:vector ETV
attr enum ON,OFF
attr interpolationmode sample-hold
attr moduledisplaypath simpleTsn.bridge1.eth[0].macLayer.queue.p3
attr recordingmode vector
attr source guardBandStateChanged
attr title "guard band state"
attr type enum
vector 57 simpleTsn.bridge1.eth[0].macLayer.queue.transmissionGate[4] gateState:vector ETV
attr enum CLOSED,OPEN
attr interpolationmode sample-hold
attr moduledisplaypath simpleTsn.bridge1.eth[0].macLayer.queue.p4
attr recordingmode vector
attr source gateStateChanged
attr title "gate state"
attr type enum
vector 58 simpleTsn.bridge1.eth[0].macLayer.queue.transmissionGate[4] guardBandState:vector ETV
attr enum ON,OFF
attr interpolationmode sample-hold
attr moduledisplaypath simpleTsn.bridge1.eth[0].macLayer.queue.p4
attr recordingmode vector
attr source guardBandStateChanged
attr title "guard band state"
attr type enum
vector 59 simpleTsn.bridge1.eth[0].macLayer.queue.transmissionGate[5] gateState:vector ETV
attr enum CLOSED,OPEN
attr interpolationmode sample-hold
attr moduledisplaypath simpleTsn.bridge1.eth[0].macLayer.queue.p5
attr recordingmode vector
attr source gateStateChanged
attr title "gate state"
attr type enum
vector 60 simpleTsn.bridge1.eth[0].macLayer.queue.transmissionGate[5] guardBandState:vector ETV
attr enum ON,OFF
attr interpolationmode sample-hold
attr moduledisplaypath simpleTsn.bridge1.eth[0].macLayer.queue.p5
attr recordingmode vector
attr source guardBandStateChanged
attr title "guard band state"
attr type enum
vector 61 simpleTsn.bridge1.eth[0].macLayer.queue.transmissionGate[6] gateState:vector ETV
attr enum CLOSED,OPEN
attr interpolationmode sample-hold
attr moduledisplaypath simpleTsn.bridge1.eth[0].macLayer.queue.p6
attr recordingmode vector
attr source gateStateChanged
attr title "gate state"
attr type enum
vector 62 simpleTsn.bridge1.eth[0].macLayer.queue.transmissionGate[6] guardBandState:vector ETV
attr enum ON,OFF
attr interpolationmode sample-hold
attr moduledisplaypath simpleTsn.bridge1.eth[0].macLayer.queue.p6
attr recordingmode vector
attr source guardBandStateChanged
attr title "guard band state"
attr type enum
vector 63 simpleTsn.bridge1.eth[0].macLayer.queue.transmissionGate[7] gateState:vector ETV
attr enum CLOSED,OPEN
attr interpolationmode sample-hold
attr moduledisplaypath simpleTsn.bridge1.eth[0].macLayer.queue.p7
attr recordingmode vector
attr source gateStateChanged
attr title "gate state"
attr type enum
vector 64 simpleTsn.bridge1.eth[0].macLayer.queue.transmissionGate[7] guardBandState:vector ETV
attr enum ON,OFF
attr interpolationmode sample-hold
attr moduledisplaypath simpleTsn.bridge1.eth[0].macLayer.queue.p7
attr recordingmode vector
attr source guardBandStateChanged
attr title "guard band state"
attr type enum
vector 65 simpleTsn.bridge1.eth[1].macLayer.queue.transmissionGate[0] gateState:vector ETV
attr enum CLOSED,OPEN
attr interpolationmode sample-hold
attr moduledisplaypath "simpleTsn.bridge1.eth[1].macLayer.queue.best effort"
attr recordingmode vector
attr source gateStateChanged
attr title "gate state"
attr type enum
vector 66 simpleTsn.bridge1.eth[1].macLayer.queue.transmissionGate[0] guardBandState:vector ETV
attr enum ON,OFF
attr interpolationmode sample-hold
attr moduledisplaypath "simpleTsn.bridge1.eth[1].macLayer.queue.best effort"
attr recordingmode vector
attr source guardBandStateChanged
attr title "guard band state"
attr type enum
vector 67 simpleTsn.bridge1.eth[1].macLayer.queue.transmissionGate[1] gateState:vector ETV
attr enum CLOSED,OPEN
attr interpolationmode sample-hold
attr moduledisplaypath simpleTsn.bridge1.eth[1].macLayer.queue.video
attr recordingmode vector
attr source gateStateChanged
attr title "gate state"
attr type enum
vector 68 simpleTsn.bridge1.eth[1].macLayer.queue.transmissionGate[1] guardBandState:vector ETV
attr enum ON,OFF
attr interpolationmode sample-hold
attr moduledisplaypath simpleTsn.bridge1.eth[1].macLayer.queue.video
attr recordingmode vector
attr source guardBandStateChanged
attr title "guard band state"
attr type enum
vector 69 simpleTsn.bridge1.eth[1].macLayer.queue.transmissionGate[2] gateState:vector ETV
attr enum CLOSED,OPEN
attr interpolationmode sample-hold
attr moduledisplaypath simpleTsn.bridge1.eth[1].macLayer.queue.control
attr recordingmode vector
attr source gateStateChanged
attr title "gate state"
attr type enum
vector 70 simpleTsn.bridge1.eth[1].macLayer.queue.transmissionGate[2] guardBandState:vector ETV
attr enum ON,OFF
attr interpolationmode sample-hold
attr moduledisplaypath simpleTsn.bridge1.eth[1].macLayer.queue.control
attr recordingmode vector
attr source guardBandStateChanged
attr title "guard band state"
attr type enum
vector 71 simpleTsn.bridge1.eth[1].macLayer.queue.transmissionGate[3] gateState:vector ETV
attr enum CLOSED,OPEN
attr interpolationmode sample-hold
attr moduledisplaypath simpleTsn.bridge1.eth[1].macLayer.queue.p3
attr recordingmode vector
attr source gateStateChanged
attr title "gate state"
attr type enum
vector 72 simpleTsn.bridge1.eth[1].macLayer.queue.transmissionGate[3] guardBandState:vector ETV
attr enum ON,OFF
attr interpolationmode sample-hold
attr moduledisplaypath simpleTsn.bridge1.eth[1].macLayer.queue.p3
attr recordingmode vector
attr source guardBandStateChanged
attr title "guard band state"
attr type enum
vector 73 simpleTsn.bridge1.eth[1].macLayer.queue.transmissionGate[4] gateState:vector ETV
attr enum CLOSED,OPEN
attr interpolationmode sample-hold
attr moduledisplaypath simpleTsn.bridge1.eth[1].macLayer.queue.p4
attr recordingmode vector
attr source gateStateChanged
attr title "gate state"
attr type enum
vector 74 simpleTsn.bridge1.eth[1].macLayer.queue.transmissionGate[4] guardBandState:vector ETV
attr enum ON,OFF
attr interpolationmode sample-hold
attr moduledisplaypath simpleTsn.bridge1.eth[1].macLayer.queue.p4
attr recordingmode vector
attr source guardBandStateChanged
attr title "guard band state"
attr type enum
vector 75 simpleTsn.bridge1.eth[1].macLayer.queue.transmissionGate[5] gateState:vector ETV
attr enum CLOSED,OPEN
attr interpolationmode sample-hold
attr moduledisplaypath simpleTsn.bridge1.eth[1].macLayer.queue.p5
attr recordingmode vector
attr source gateStateChanged
attr title "gate state"
attr type enum
vector 76 simpleTsn.bridge1.eth[1].macLayer.queue.transmissionGate[5] guardBandState:vector ETV
attr enum ON,OFF
attr interpolationmode sample-hold
attr moduledisplaypath simpleTsn.bridge1.eth[1].macLayer.queue.p5
attr recordingmode vector
attr source guardBandStateChanged
attr title "guard band state"
attr type enum
vector 77 simpleTsn.bridge1.eth[1].macLayer.queue.transmissionGate[6] gateState:vector ETV
attr enum CLOSED,OPEN
attr interpolationmode sample-hold
attr moduledisplaypath simpleTsn.bridge1.eth[1].macLayer.queue.p6
attr recordingmode vector
attr source gateStateChanged
attr title "gate state"
attr type enum
vector 78 simpleTsn.bridge1.eth[1].macLayer.queue.transmissionGate[6] guardBandState:vector ETV
attr enum ON,OFF
attr interpolationmode sample-hold
attr moduledisplaypath simpleTsn.bridge1.eth[1].macLayer.queue.p6
attr recordingmode vector
attr source guardBandStateChanged
attr title "guard band state"
attr type enum
vector 79 simpleTsn.bridge1.eth[1].macLayer.queue.transmissionGate[7] gateState:vector ETV
attr enum CLOSED,OPEN
attr interpolationmode sample-hold
attr moduledisplaypath simpleTsn.bridge1.eth[1].macLayer.queue.p7
attr recordingmode vector
attr source gateStateChanged
attr title "gate state"
attr type enum
vector 80 simpleTsn.bridge1.eth[1].macLayer.queue.transmissionGate[7] guardBandState:vector ETV
attr enum ON,OFF
attr interpolationmode sample-hold
attr moduledisplaypath simpleTsn.bridge1.eth[1].macLayer.queue.p7
attr recordingmode vector
attr source guardBandStateChanged
attr title "guard band state"
attr type enum
vector 81 simpleTsn.bridge1.eth[2].macLayer.queue.transmissionGate[0] gateState:vector ETV
attr enum CLOSED,OPEN
attr interpolationmode sample-hold
attr moduledisplaypath "simpleTsn.bridge1.eth[2].macLayer.queue.best effort"
attr recordingmode vector
attr source gateStateChanged
attr title "gate state"
attr type enum
vector 82 simpleTsn.bridge1.eth[2].macLayer.queue.transmissionGate[0] guardBandState:vector ETV
attr enum ON,OFF
attr interpolationmode sample-hold
attr moduledisplaypath "simpleTsn.bridge1.eth[2].macLayer.queue.best effort"
attr recordingmode vector
attr source guardBandStateChanged
attr title "guard band state"
attr type enum
vector 83 simpleTsn.bridge1.eth[2].macLayer.queue.transmissionGate[1] gateState:vector ETV
attr enum CLOSED,OPEN
attr interpolationmode sample-hold
attr moduledisplaypath simpleTsn.bridge1.eth[2].macLayer.queue.video
attr recordingmode vector
attr source gateStateChanged
attr title "gate state"
attr type enum
vector 84 simpleTsn.bridge1.eth[2].macLayer.queue.transmissionGate[1] guardBandState:vector ETV
attr enum ON,OFF
attr interpolationmode sample-hold
attr moduledisplaypath simpleTsn.bridge1.eth[2].macLayer.queue.video
attr recordingmode vector
attr source guardBandStateChanged
attr title "guard band state"
attr type enum
vector 85 simpleTsn.bridge1.eth[2].macLayer.queue.transmissionGate[2] gateState:vector ETV
attr enum CLOSED,OPEN
attr interpolationmode sample-hold
attr moduledisplaypath simpleTsn.bridge1.eth[2].macLayer.queue.control
attr recordingmode vector
attr source gateStateChanged
attr title "gate state"
attr type enum
vector 86 simpleTsn.bridge1.eth[2].macLayer.queue.transmissionGate[2] guardBandState:vector ETV
attr enum ON,OFF
attr interpolationmode sample-hold
attr moduledisplaypath simpleTsn.bridge1.eth[2].macLayer.queue.control
attr recordingmode vector
attr source guardBandStateChanged
attr title "guard band state"
attr type enum
vector 87 simpleTsn.bridge1.eth[2].macLayer.queue.transmissionGate[3] gateState:vector ETV
attr enum CLOSED,OPEN
attr interpolationmode sample-hold
attr moduledisplaypath simpleTsn.bridge1.eth[2].macLayer.queue.p3
attr recordingmode vector
attr source gateStateChanged
attr title "gate state"
attr type enum
vector 88 simpleTsn.bridge1.eth[2].macLayer.queue.transmissionGate[3] guardBandState:vector ETV
attr enum ON,OFF
attr interpolationmode sample-hold
attr moduledisplaypath simpleTsn.bridge1.eth[2].macLayer.queue.p3
attr recordingmode vector
attr source guardBandStateChanged
attr title "guard band state"
attr type enum
vector 89 simpleTsn.bridge1.eth[2].macLayer.queue.transmissionGate[4] gateState:vector ETV
attr enum CLOSED,OPEN
attr interpolationmode sample-hold
attr moduledisplaypath simpleTsn.bridge1.eth[2].macLayer.queue.p4
attr recordingmode vector
attr source gateStateChanged
attr title "gate state"
attr type enum
vector 90 simpleTsn.bridge1.eth[2].macLayer.queue.transmissionGate[4] guardBandState:vector ETV
attr enum ON,OFF
attr interpolationmode sample-hold
attr moduledisplaypath simpleTsn.bridge1.eth[2].macLayer.queue.p4
attr recordingmode vector
attr source guardBandStateChanged
attr title "guard band state"
attr type enum
vector 91 simpleTsn.bridge1.eth[2].macLayer.queue.transmissionGate[5] gateState:vector ETV
attr enum CLOSED,OPEN
attr interpolationmode sample-hold
attr moduledisplaypath simpleTsn.bridge1.eth[2].macLayer.queue.p5
attr recordingmode vector
attr source gateStateChanged
attr title "gate state"
attr type enum
vector 92 simpleTsn.bridge1.eth[2].macLayer.queue.transmissionGate[5] guardBandState:vector ETV
attr enum ON,OFF
attr interpolationmode sample-hold
attr moduledisplaypath simpleTsn.bridge1.eth[2].macLayer.queue.p5
attr recordingmode vector
attr source guardBandStateChanged
attr title "guard band state"
attr type enum
vector 93 simpleTsn.bridge1.eth[2].macLayer.queue.transmissionGate[6] gateState:vector ETV
attr enum CLOSED,OPEN
attr interpolationmode sample-hold
attr moduledisplaypath simpleTsn.bridge1.eth[2].macLayer.queue.p6
attr recordingmode vector
attr source gateStateChanged
attr title "gate state"
attr type enum
vector 94 simpleTsn.bridge1.eth[2].macLayer.queue.transmissionGate[6] guardBandState:vector ETV
attr enum ON,OFF
attr interpolationmode sample-hold
attr moduledisplaypath simpleTsn.bridge1.eth[2].macLayer.queue.p6
attr recordingmode vector
attr source guardBandStateChanged
attr title "guard band state"
attr type enum
vector 95 simpleTsn.bridge1.eth[2].macLayer.queue.transmissionGate[7] gateState:vector ETV
attr enum CLOSED,OPEN
attr interpolationmode sample-hold
attr moduledisplaypath simpleTsn.bridge1.eth[2].macLayer.queue.p7
attr recordingmode vector
attr source gateStateChanged
attr title "gate state"
attr type enum
vector 96 simpleTsn.bridge1.eth[2].macLayer.queue.transmissionGate[7] guardBandState:vector ETV
attr enum ON,OFF
attr interpolationmode sample-hold
attr moduledisplaypath simpleTsn.bridge1.eth[2].macLayer.queue.p7
attr recordingmode vector
attr source guardBandStateChanged
attr title "guard band state"
attr type enum
vector 97 simpleTsn.bridge2.eth[0].macLayer.queue.transmissionGate[0] gateState:vector ETV
attr enum CLOSED,OPEN
attr interpolationmode sample-hold
attr moduledisplaypath "simpleTsn.bridge2.eth[0].macLayer.queue.best effort"
attr recordingmode vector
attr source gateStateChanged
attr title "gate state"
attr type enum
vector 98 simpleTsn.bridge2.eth[0].macLayer.queue.transmissionGate[0] guardBandState:vector ETV
attr enum ON,OFF
attr interpolationmode sample-hold
attr moduledisplaypath "simpleTsn.bridge2.eth[0].macLayer.queue.best effort"
attr recordingmode vector
attr source guardBandStateChanged
attr title "guard band state"
attr type enum
vector 99 simpleTsn.bridge2.eth[0].macLayer.queue.transmissionGate[1] gateState:vector ETV
attr enum CLOSED,OPEN
attr interpolationmode sample-hold
attr moduledisplaypath simpleTsn.bridge2.eth[0].macLayer.queue.video
attr recordingmode vector
attr source gateStateChanged
attr title "gate state"
attr type enum
vector 100 simpleTsn.bridge2.eth[0].macLayer.queue.transmissionGate[1] guardBandState:vector ETV
attr enum ON,OFF
attr interpolationmode sample-hold
attr moduledisplaypath simpleTsn.bridge2.eth[0].macLayer.queue.video
attr recordingmode vector
attr source guardBandStateChanged
attr title "guard band state"
attr type enum
vector 101 simpleTsn.bridge2.eth[0].macLayer.queue.transmissionGate[2] gateState:vector ETV
attr enum CLOSED,OPEN
attr interpolationmode sample-hold
attr moduledisplaypath simpleTsn.bridge2.eth[0].macLayer.queue.control
attr recordingmode vector
attr source gateStateChanged
attr title "gate state"
attr type enum
vector 102 simpleTsn.bridge2.eth[0].macLayer.queue.transmissionGate[2] guardBandState:vector ETV
attr enum ON,OFF
attr interpolationmode sample-hold
attr moduledisplaypath simpleTsn.bridge2.eth[0].macLayer.queue.control
attr recordingmode vector
attr source guardBandStateChanged
attr title "guard band state"
attr type enum
vector 103 simpleTsn.bridge2.eth[0].macLayer.queue.transmissionGate[3] gateState:vector ETV
attr enum CLOSED,OPEN
attr interpolationmode sample-hold
attr moduledisplaypath simpleTsn.bridge2.eth[0].macLayer.queue.p3
attr recordingmode vector
attr source gateStateChanged
attr title "gate state"
attr type enum
vector 104 simpleTsn.bridge2.eth[0].macLayer.queue.transmissionGate[3] guardBandState:vector ETV
attr enum ON,OFF
attr interpolationmode sample-hold
attr moduledisplaypath simpleTsn.bridge2.eth[0].macLayer.queue.p3
attr recordingmode vector
attr source guardBandStateChanged
attr title "guard band state"
attr type enum
vector 105 simpleTsn.bridge2.eth[0].macLayer.queue.transmissionGate[4] gateState:vector ETV
attr enum CLOSED,OPEN
attr interpolationmode sample-hold
attr moduledisplaypath simpleTsn.bridge2.eth[0].macLayer.queue.p4
attr recordingmode vector
attr source gateStateChanged
attr title "gate state"
attr type enum
vector 106 simpleTsn.bridge2.eth[0].macLayer.queue.transmissionGate[4] guardBandState:vector ETV
attr enum ON,OFF
attr interpolationmode sample-hold
attr moduledisplaypath simpleTsn.bridge2.eth[0].macLayer.queue.p4
attr recordingmode vector
attr source guardBandStateChanged
attr title "guard band state"
attr type enum
vector 107 simpleTsn.bridge2.eth[0].macLayer.queue.transmissionGate[5] gateState:vector ETV
attr enum CLOSED,OPEN
attr interpolationmode sample-hold
attr moduledisplaypath simpleTsn.bridge2.eth[0].macLayer.queue.p5
attr recordingmode vector
attr source gateStateChanged
attr title "gate state"
attr type enum
vector 108 simpleTsn.bridge2.eth[0].macLayer.queue.transmissionGate[5] guardBandState:vector ETV
attr enum ON,OFF
attr interpolationmode sample-hold
attr moduledisplaypath simpleTsn.bridge2.eth[0].macLayer.queue.p5
attr recordingmode vector
attr source guardBandStateChanged
attr title "guard band state"
attr type enum
vector 109 simpleTsn.bridge2.eth[0].macLayer.queue.transmissionGate[6] gateState:vector ETV
attr enum CLOSED,OPEN
attr interpolationmode sample-hold
attr moduledisplaypath simpleTsn.bridge2.eth[0].macLayer.queue.p6
attr recordingmode vector
attr source gateStateChanged
attr title "gate state"
attr type enum
vector 110 simpleTsn.bridge2.eth[0].macLayer.queue.transmissionGate[6] guardBandState:vector ETV
attr enum ON,OFF
attr interpolationmode sample-hold
attr moduledisplaypath simpleTsn.bridge2.eth[0].macLayer.queue.p6
attr recordingmode vector
attr source guardBandStateChanged
attr title "guard band state"
attr type enum
vector 111 simpleTsn.bridge2.eth[0].macLayer.queue.transmissionGate[7] gateState:vector ETV
attr enum CLOSED,OPEN
attr interpolationmode sample-hold
attr moduledisplaypath simpleTsn.bridge2.eth[0].macLayer.queue.p7
attr recordingmode vector
attr source gateStateChanged
attr title "gate state"
attr type enum
vector 112 simpleTsn.bridge2.eth[0].macLayer.queue.transmissionGate[7] guardBandState:vector ETV
attr enum ON,OFF
attr interpolationmode sample-hold
attr moduledisplaypath simpleTsn.bridge2.eth[0].macLayer.queue.p7
attr recordingmode vector
attr source guardBandStateChanged
attr title "guard band state"
attr type enum
vector 113 simpleTsn.bridge2.eth[1].macLayer.queue.transmissionGate[0] gateState:vector ETV
attr enum CLOSED,OPEN
attr interpolationmode sample-hold
attr moduledisplaypath "simpleTsn.bridge2.eth[1].macLayer.queue.best effort"
attr recordingmode vector
attr source gateStateChanged
attr title "gate state"
attr type enum
vector 114 simpleTsn.bridge2.eth[1].macLayer.queue.transmissionGate[0] guardBandState:vector ETV
attr enum ON,OFF
attr interpolationmode sample-hold
attr moduledisplaypath "simpleTsn.bridge2.eth[1].macLayer.queue.best effort"
attr recordingmode vector
attr source guardBandStateChanged
attr title "guard band state"
attr type enum
vector 115 simpleTsn.bridge2.eth[1].macLayer.queue.transmissionGate[1] gateState:vector ETV
attr enum CLOSED,OPEN
attr interpolationmode sample-hold
attr moduledisplaypath simpleTsn.bridge2.eth[1].macLayer.queue.video
attr recordingmode vector
attr source gateStateChanged
attr title "gate state"
attr type enum
vector 116 simpleTsn.bridge2.eth[1].macLayer.queue.transmissionGate[1] guardBandState:vector ETV
attr enum ON,OFF
attr interpolationmode sample-hold
attr moduledisplaypath simpleTsn.bridge2.eth[1].macLayer.queue.video
attr recordingmode vector
attr source guardBandStateChanged
attr title "guard band state"
attr type enum
vector 117 simpleTsn.bridge2.eth[1].macLayer.queue.transmissionGate[2] gateState:vector ETV
attr enum CLOSED,OPEN
attr interpolationmode sample-hold
attr moduledisplaypath simpleTsn.bridge2.eth[1].macLayer.queue.control
attr recordingmode vector
attr source gateStateChanged
attr title "gate state"
attr type enum
vector 118 simpleTsn.bridge2.eth[1].macLayer.queue.transmissionGate[2] guardBandState:vector ETV
attr enum ON,OFF
attr interpolationmode sample-hold
attr moduledisplaypath simpleTsn.bridge2.eth[1].macLayer.queue.control
attr recordingmode vector
attr source guardBandStateChanged
attr title "guard band state"
attr type enum
vector 119 simpleTsn.bridge2.eth[1].macLayer.queue.transmissionGate[3] gateState:vector ETV
attr enum CLOSED,OPEN
attr interpolationmode sample-hold
attr moduledisplaypath simpleTsn.bridge2.eth[1].macLayer.queue.p3
attr recordingmode vector
attr source gateStateChanged
attr title "gate state"
attr type enum
vector 120 simpleTsn.bridge2.eth[1].macLayer.queue.transmissionGate[3] guardBandState:vector ETV
attr enum ON,OFF
attr interpolationmode sample-hold
attr moduledisplaypath simpleTsn.bridge2.eth[1].macLayer.queue.p3
attr recordingmode vector
attr source guardBandStateChanged
attr title "guard band state"
attr type enum
vector 121 simpleTsn.bridge2.eth[1].macLayer.queue.transmissionGate[4] gateState:vector ETV
attr enum CLOSED,OPEN
attr interpolationmode sample-hold
attr moduledisplaypath simpleTsn.bridge2.eth[1].macLayer.queue.p4
attr recordingmode vector
attr source gateStateChanged
attr title "gate state"
attr type enum
vector 122 simpleTsn.bridge2.eth[1].macLayer.queue.transmissionGate[4] guardBandState:vector ETV
attr enum ON,OFF
attr interpolationmode sample-hold
attr moduledisplaypath simpleTsn.bridge2.eth[1].macLayer.queue.p4
attr recordingmode vector
attr source guardBandStateChanged
attr title "guard band state"
attr type enum
vector 123 simpleTsn.bridge2.eth[1].macLayer.queue.transmissionGate[5] gateState:vector ETV
attr enum CLOSED,OPEN
attr interpolationmode sample-hold
attr moduledisplaypath simpleTsn.bridge2.eth[1].macLayer.queue.p5
attr recordingmode vector
attr source gateStateChanged
attr title "gate state"
attr type enum
vector 124 simpleTsn.bridge2.eth[1].macLayer.queue.transmissionGate[5] guardBandState:vector ETV
attr enum ON,OFF
attr interpolationmode sample-hold
attr moduledisplaypath simpleTsn.bridge2.eth[1].macLayer.queue.p5
attr recordingmode vector
attr source guardBandStateChanged
attr title "guard band state"
attr type enum
vector 125 simpleTsn.bridge2.eth[1].macLayer.queue.transmissionGate[6] gateState:vector ETV
attr enum CLOSED,OPEN
attr interpolationmode sample-hold
attr moduledisplaypath simpleTsn.bridge2.eth[1].macLayer.queue.p6
attr recordingmode vector
attr source gateStateChanged
attr title "gate state"
attr type enum
vector 126 simpleTsn.bridge2.eth[1].macLayer.queue.transmissionGate[6] guardBandState:vector ETV
attr enum ON,OFF
attr interpolationmode sample-hold
attr moduledisplaypath simpleTsn.bridge2.eth[1].macLayer.queue.p6
attr recordingmode vector
attr source guardBandStateChanged
attr title "guard band state"
attr type enum
vector 127 simpleTsn.bridge2.eth[1].macLayer.queue.transmissionGate[7] gateState:vector ETV
attr enum CLOSED,OPEN
attr interpolationmode sample-hold
attr moduledisplaypath simpleTsn.bridge2.eth[1].macLayer.queue.p7
attr recordingmode vector
attr source gateStateChanged
attr title "gate state"
attr type enum
vector 128 simpleTsn.bridge2.eth[1].macLayer.queue.transmissionGate[7] guardBandState:vector ETV
attr enum ON,OFF
attr interpolationmode sample-hold
attr moduledisplaypath simpleTsn.bridge2.eth[1].macLayer.queue.p7
attr recordingmode vector
attr source guardBandStateChanged
attr title "guard band state"
attr type enum
vector 129 simpleTsn.bridge2.eth[2].macLayer.queue.transmissionGate[0] gateState:vector ETV
attr enum CLOSED,OPEN
attr interpolationmode sample-hold
attr moduledisplaypath "simpleTsn.bridge2.eth[2].macLayer.queue.best effort"
attr recordingmode vector
attr source gateStateChanged
attr title "gate state"
attr type enum
vector 130 simpleTsn.bridge2.eth[2].macLayer.queue.transmissionGate[0] guardBandState:vector ETV
attr enum ON,OFF
attr interpolationmode sample-hold
attr moduledisplaypath "simpleTsn.bridge2.eth[2].macLayer.queue.best effort"
attr recordingmode vector
attr source guardBandStateChanged
attr title "guard band state"
attr type enum
vector 131 simpleTsn.bridge2.eth[2].macLayer.queue.transmissionGate[1] gateState:vector ETV
attr enum CLOSED,OPEN
attr interpolationmode sample-hold
attr moduledisplaypath simpleTsn.bridge2.eth[2].macLayer.queue.video
attr recordingmode vector
attr source gateStateChanged
attr title "gate state"
attr type enum
vector 132 simpleTsn.bridge2.eth[2].macLayer.queue.transmissionGate[1] guardBandState:vector ETV
attr enum ON,OFF
attr interpolationmode sample-hold
attr moduledisplaypath simpleTsn.bridge2.eth[2].macLayer.queue.video
attr recordingmode vector
attr source guardBandStateChanged
attr title "guard band state"
attr type enum
vector 133 simpleTsn.bridge2.eth[2].macLayer.queue.transmissionGate[2] gateState:vector ETV
attr enum CLOSED,OPEN
attr interpolationmode sample-hold
attr moduledisplaypath simpleTsn.bridge2.eth[2].macLayer.queue.control
attr recordingmode vector
attr source gateStateChanged
attr title "gate state"
attr type enum
vector 134 simpleTsn.bridge2.eth[2].macLayer.queue.transmissionGate[2] guardBandState:vector ETV
attr enum ON,OFF
attr interpolationmode sample-hold
attr moduledisplaypath simpleTsn.bridge2.eth[2].macLayer.queue.control
attr recordingmode vector
attr source guardBandStateChanged
attr title "guard band state"
attr type enum
vector 135 simpleTsn.bridge2.eth[2].macLayer.queue.transmissionGate[3] gateState:vector ETV
attr enum CLOSED,OPEN
attr interpolationmode sample-hold
attr moduledisplaypath simpleTsn.bridge2.eth[2].macLayer.queue.p3
attr recordingmode vector
attr source gateStateChanged
attr title "gate state"
attr type enum
vector 136 simpleTsn.bridge2.eth[2].macLayer.queue.transmissionGate[3] guardBandState:vector ETV
attr enum ON,OFF
attr interpolationmode sample-hold
attr moduledisplaypath simpleTsn.bridge2.eth[2].macLayer.queue.p3
attr recordingmode vector
attr source guardBandStateChanged
attr title "guard band state"
attr type enum
vector 137 simpleTsn.bridge2.eth[2].macLayer.queue.transmissionGate[4] gateState:vector ETV
attr enum CLOSED,OPEN
attr interpolationmode sample-hold
attr moduledisplaypath simpleTsn.bridge2.eth[2].macLayer.queue.p4
attr recordingmode vector
attr source gateStateChanged
attr title "gate state"
attr type enum
vector 138 simpleTsn.bridge2.eth[2].macLayer.queue.transmissionGate[4] guardBandState:vector ETV
attr enum ON,OFF
attr interpolationmode sample-hold
attr moduledisplaypath simpleTsn.bridge2.eth[2].macLayer.queue.p4
attr recordingmode vector
attr source guardBandStateChanged
attr title "guard band state"
attr type enum
vector 139 simpleTsn.bridge2.eth[2].macLayer.queue.transmissionGate[5] gateState:vector ETV
attr enum CLOSED,OPEN
attr interpolationmode sample-hold
attr moduledisplaypath simpleTsn.bridge2.eth[2].macLayer.queue.p5
attr recordingmode vector
attr source gateStateChanged
attr title "gate state"
attr type enum
vector 140 simpleTsn.bridge2.eth[2].macLayer.queue.transmissionGate[5] guardBandState:vector ETV
attr enum ON,OFF
attr interpolationmode sample-hold
attr moduledisplaypath simpleTsn.bridge2.eth[2].macLayer.queue.p5
attr recordingmode vector
attr source guardBandStateChanged
attr title "guard band state"
attr type enum
vector 141 simpleTsn.bridge2.eth[2].macLayer.queue.transmissionGate[6] gateState:vector ETV
attr enum CLOSED,OPEN
attr interpolationmode sample-hold
attr moduledisplaypath simpleTsn.bridge2.eth[2].macLayer.queue.p6
attr recordingmode vector
attr source gateStateChanged
attr title "gate state"
attr type enum
vector 142 simpleTsn.bridge2.eth[2].macLayer.queue.transmissionGate[6] guardBandState:vector ETV
attr enum ON,OFF
attr interpolationmode sample-hold
attr moduledisplaypath simpleTsn.bridge2.eth[2].macLayer.queue.p6
attr recordingmode vector
attr source guardBandStateChanged
attr title "guard band state"
attr type enum
vector 143 simpleTsn.bridge2.eth[2].macLayer.queue.transmissionGate[7] gateState:vector ETV
attr enum CLOSED,OPEN
attr interpolationmode sample-hold
attr moduledisplaypath simpleTsn.bridge2.eth[2].macLayer.queue.p7
attr recordingmode vector
attr source gateStateChanged
attr title "gate state"
attr type enum
vector 144 simpleTsn.bridge2.eth[2].macLayer.queue.transmissionGate[7] guardBandState:vector ETV
attr enum ON,OFF
attr interpolationmode sample-hold
attr moduledisplaypath simpleTsn.bridge2.eth[2].macLayer.queue.p7
attr recordingmode vector
attr source guardBandStateChanged
attr title "guard band state"
attr type enum
vector 145 simpleTsn.bridge3.eth[0].macLayer.queue.transmissionGate[0] gateState:vector ETV
attr enum CLOSED,OPEN
attr interpolationmode sample-hold
attr moduledisplaypath "simpleTsn.bridge3.eth[0].macLayer.queue.best effort"
attr recordingmode vector
attr source gateStateChanged
attr title "gate state"
attr type enum
vector 146 simpleTsn.bridge3.eth[0].macLayer.queue.transmissionGate[0] guardBandState:vector ETV
attr enum ON,OFF
attr interpolationmode sample-hold
attr moduledisplaypath "simpleTsn.bridge3.eth[0].macLayer.queue.best effort"
attr recordingmode vector
attr source guardBandStateChanged
attr title "guard band state"
attr type enum
vector 147 simpleTsn.bridge3.eth[0].macLayer.queue.transmissionGate[1] gateState:vector ETV
attr enum CLOSED,OPEN
attr interpolationmode sample-hold
attr moduledisplaypath simpleTsn.bridge3.eth[0].macLayer.queue.video
attr recordingmode vector
attr source gateStateChanged
attr title "gate state"
attr type enum
vector 148 simpleTsn.bridge3.eth[0].macLayer.queue.transmissionGate[1] guardBandState:vector ETV
attr enum ON,OFF
attr interpolationmode sample-hold
attr moduledisplaypath simpleTsn.bridge3.eth[0].macLayer.queue.video
attr recordingmode vector
attr source guardBandStateChanged
attr title "guard band state"
attr type enum
vector 149 simpleTsn.bridge3.eth[0].macLayer.queue.transmissionGate[2] gateState:vector ETV
attr enum CLOSED,OPEN
attr interpolationmode sample-hold
attr moduledisplaypath simpleTsn.bridge3.eth[0].macLayer.queue.control
attr recordingmode vector
attr source gateStateChanged
attr title "gate state"
attr type enum
vector 150 simpleTsn.bridge3.eth[0].macLayer.queue.transmissionGate[2] guardBandState:vector ETV
attr enum ON,OFF
attr interpolationmode sample-hold
attr moduledisplaypath simpleTsn.bridge3.eth[0].macLayer.queue.control
attr recordingmode vector
attr source guardBandStateChanged
attr title "guard band state"
attr type enum
vector 151 simpleTsn.bridge3.eth[0].macLayer.queue.transmissionGate[3] gateState:vector ETV
attr enum CLOSED,OPEN
attr interpolationmode sample-hold
attr moduledisplaypath simpleTsn.bridge3.eth[0].macLayer.queue.p3
attr recordingmode vector
attr source gateStateChanged
attr title "gate state"
attr type enum
vector 152 simpleTsn.bridge3.eth[0].macLayer.queue.transmissionGate[3] guardBandState:vector ETV
attr enum ON,OFF
attr interpolationmode sample-hold
attr moduledisplaypath simpleTsn.bridge3.eth[0].macLayer.queue.p3
attr recordingmode vector
attr source guardBandStateChanged
attr title "guard band state"
attr type enum
vector 153 simpleTsn.bridge3.eth[0].macLayer.queue.transmissionGate[4] gateState:vector ETV
attr enum CLOSED,OPEN
attr interpolationmode sample-hold
attr moduledisplaypath simpleTsn.bridge3.eth[0].macLayer.queue.p4
attr recordingmode vector
attr source gateStateChanged
attr title "gate state"
attr type enum
vector 154 simpleTsn.bridge3.eth[0].macLayer.queue.transmissionGate[4] guardBandState:vector ETV
attr enum ON,OFF
attr interpolationmode sample-hold
attr moduledisplaypath simpleTsn.bridge3.eth[0].macLayer.queue.p4
attr recordingmode vector
attr source guardBandStateChanged
attr title "guard band state"
attr type enum
vector 155 simpleTsn.bridge3.eth[0].macLayer.queue.transmissionGate[5] gateState:vector ETV
attr enum CLOSED,OPEN
attr interpolationmode sample-hold
attr moduledisplaypath simpleTsn.bridge3.eth[0].macLayer.queue.p5
attr recordingmode vector
attr source gateStateChanged
attr title "gate state"
attr type enum
vector 156 simpleTsn.bridge3.eth[0].macLayer.queue.transmissionGate[5] guardBandState:vector ETV
attr enum ON,OFF
attr interpolationmode sample-hold
attr moduledisplaypath simpleTsn.bridge3.eth[0].macLayer.queue.p5
attr recordingmode vector
attr source guardBandStateChanged
attr title "guard band state"
attr type enum
vector 157 simpleTsn.bridge3.eth[0].macLayer.queue.transmissionGate[6] gateState:vector ETV
attr enum CLOSED,OPEN
attr interpolationmode sample-hold
attr moduledisplaypath simpleTsn.bridge3.eth[0].macLayer.queue.p6
attr recordingmode vector
attr source gateStateChanged
attr title "gate state"
attr type enum
vector 158 simpleTsn.bridge3.eth[0].macLayer.queue.transmissionGate[6] guardBandState:vector ETV
attr enum ON,OFF
attr interpolationmode sample-hold
attr moduledisplaypath simpleTsn.bridge3.eth[0].macLayer.queue.p6
attr recordingmode vector
attr source guardBandStateChanged
attr title "guard band state"
attr type enum
vector 159 simpleTsn.bridge3.eth[0].macLayer.queue.transmissionGate[7] gateState:vector ETV
attr enum CLOSED,OPEN
attr interpolationmode sample-hold
attr moduledisplaypath simpleTsn.bridge3.eth[0].macLayer.queue.p7
attr recordingmode vector
attr source gateStateChanged
attr title "gate state"
attr type enum
vector 160 simpleTsn.bridge3.eth[0].macLayer.queue.transmissionGate[7] guardBandState:vector ETV
attr enum ON,OFF
attr interpolationmode sample-hold
attr moduledisplaypath simpleTsn.bridge3.eth[0].macLayer.queue.p7
attr recordingmode vector
attr source guardBandStateChanged
attr title "guard band state"
attr type enum
vector 161 simpleTsn.bridge3.eth[1].macLayer.queue.transmissionGate[0] gateState:vector ETV
attr enum CLOSED,OPEN
attr interpolationmode sample-hold
attr moduledisplaypath "simpleTsn.bridge3.eth[1].macLayer.queue.best effort"
attr recordingmode vector
attr source gateStateChanged
attr title "gate state"
attr type enum
vector 162 simpleTsn.bridge3.eth[1].macLayer.queue.transmissionGate[0] guardBandState:vector ETV
attr enum ON,OFF
attr interpolationmode sample-hold
attr moduledisplaypath "simpleTsn.bridge3.eth[1].macLayer.queue.best effort"
attr recordingmode vector
attr source guardBandStateChanged
attr title "guard band state"
attr type enum
vector 163 simpleTsn.bridge3.eth[1].macLayer.queue.transmissionGate[1] gateState:vector ETV
attr enum CLOSED,OPEN
attr interpolationmode sample-hold
attr moduledisplaypath simpleTsn.bridge3.eth[1].macLayer.queue.video
attr recordingmode vector
attr source gateStateChanged
attr title "gate state"
attr type enum
vector 164 simpleTsn.bridge3.eth[1].macLayer.queue.transmissionGate[1] guardBandState:vector ETV
attr enum ON,OFF
attr interpolationmode sample-hold
attr moduledisplaypath simpleTsn.bridge3.eth[1].macLayer.queue.video
attr recordingmode vector
attr source guardBandStateChanged
attr title "guard band state"
attr type enum
vector 165 simpleTsn.bridge3.eth[1].macLayer.queue.transmissionGate[2] gateState:vector ETV
attr enum CLOSED,OPEN
attr interpolationmode sample-hold
attr moduledisplaypath simpleTsn.bridge3.eth[1].macLayer.queue.control
attr recordingmode vector
attr source gateStateChanged
attr title "gate state"
attr type enum
vector 166 simpleTsn.bridge3.eth[1].macLayer.queue.transmissionGate[2] guardBandState:vector ETV
attr enum ON,OFF
attr interpolationmode sample-hold
attr moduledisplaypath simpleTsn.bridge3.eth[1].macLayer.queue.control
attr recordingmode vector
attr source guardBandStateChanged
attr title "guard band state"
attr type enum
vector 167 simpleTsn.bridge3.eth[1].macLayer.queue.transmissionGate[3] gateState:vector ETV
attr enum CLOSED,OPEN
attr interpolationmode sample-hold
attr moduledisplaypath simpleTsn.bridge3.eth[1].macLayer.queue.p3
attr recordingmode vector
attr source gateStateChanged
attr title "gate state"
attr type enum
vector 168 simpleTsn.bridge3.eth[1].macLayer.queue.transmissionGate[3] guardBandState:vector ETV
attr enum ON,OFF
attr interpolationmode sample-hold
attr moduledisplaypath simpleTsn.bridge3.eth[1].macLayer.queue.p3
attr recordingmode vector
attr source guardBandStateChanged
attr title "guard band state"
attr type enum
vector 169 simpleTsn.bridge3.eth[1].macLayer.queue.transmissionGate[4] gateState:vector ETV
attr enum CLOSED,OPEN
attr interpolationmode sample-hold
attr moduledisplaypath simpleTsn.bridge3.eth[1].macLayer.queue.p4
attr recordingmode vector
attr source gateStateChanged
attr title "gate state"
attr type enum
vector 170 simpleTsn.bridge3.eth[1].macLayer.queue.transmissionGate[4] guardBandState:vector ETV
attr enum ON,OFF
attr interpolationmode sample-hold
attr moduledisplaypath simpleTsn.bridge3.eth[1].macLayer.queue.p4
attr recordingmode vector
attr source guardBandStateChanged
attr title "guard band state"
attr type enum
vector 171 simpleTsn.bridge3.eth[1].macLayer.queue.transmissionGate[5] gateState:vector ETV
attr enum CLOSED,OPEN
attr interpolationmode sample-hold
attr moduledisplaypath simpleTsn.bridge3.eth[1].macLayer.queue.p5
attr recordingmode vector
attr source gateStateChanged
attr title "gate state"
attr type enum
vector 172 simpleTsn.bridge3.eth[1].macLayer.queue.transmissionGate[5] guardBandState:vector ETV
attr enum ON,OFF
attr interpolationmode sample-hold
attr moduledisplaypath simpleTsn.bridge3.eth[1].macLayer.queue.p5
attr recordingmode vector
attr source guardBandStateChanged
attr title "guard band state"
attr type enum
vector 173 simpleTsn.bridge3.eth[1].macLayer.queue.transmissionGate[6] gateState:vector ETV
attr enum CLOSED,OPEN
attr interpolationmode sample-hold
attr moduledisplaypath simpleTsn.bridge3.eth[1].macLayer.queue.p6
attr recordingmode vector
attr source gateStateChanged
attr title "gate state"
attr type enum
vector 174 simpleTsn.bridge3.eth[1].macLayer.queue.transmissionGate[6] guardBandState:vector ETV
attr enum ON,OFF
attr interpolationmode sample-hold
attr moduledisplaypath simpleTsn.bridge3.eth[1].macLayer.queue.p6
attr recordingmode vector
attr source guardBandStateChanged
attr title "guard band state"
attr type enum
vector 175 simpleTsn.bridge3.eth[1].macLayer.queue.transmissionGate[7] gateState:vector ETV
attr enum CLOSED,OPEN
attr interpolationmode sample-hold
attr moduledisplaypath simpleTsn.bridge3.eth[1].macLayer.queue.p7
attr recordingmode vector
attr source gateStateChanged
attr title "gate state"
attr type enum
vector 176 simpleTsn.bridge3.eth[1].macLayer.queue.transmissionGate[7] guardBandState:vector ETV
attr enum ON,OFF
attr interpolationmode sample-hold
attr moduledisplaypath simpleTsn.bridge3.eth[1].macLayer.queue.p7
attr recordingmode vector
attr source guardBandStateChanged
attr title "guard band state"
attr type enum
vector 177 simpleTsn.bridge3.eth[2].macLayer.queue.transmissionGate[0] gateState:vector ETV
attr enum CLOSED,OPEN
attr interpolationmode sample-hold
attr moduledisplaypath "simpleTsn.bridge3.eth[2].macLayer.queue.best effort"
attr recordingmode vector
attr source gateStateChanged
attr title "gate state"
attr type enum
vector 178 simpleTsn.bridge3.eth[2].macLayer.queue.transmissionGate[0] guardBandState:vector ETV
attr enum ON,OFF
attr interpolationmode sample-hold
attr moduledisplaypath "simpleTsn.bridge3.eth[2].macLayer.queue.best effort"
attr recordingmode vector
attr source guardBandStateChanged
attr title "guard band state"
attr type enum
vector 179 simpleTsn.bridge3.eth[2].macLayer.queue.transmissionGate[1] gateState:vector ETV
attr enum CLOSED,OPEN
attr interpolationmode sample-hold
attr moduledisplaypath simpleTsn.bridge3.eth[2].macLayer.queue.video
attr recordingmode vector
attr source gateStateChanged
attr title "gate state"
attr type enum
vector 180 simpleTsn.bridge3.eth[2].macLayer.queue.transmissionGate[1] guardBandState:vector ETV
attr enum ON,OFF
attr interpolationmode sample-hold
attr moduledisplaypath simpleTsn.bridge3.eth[2].macLayer.queue.video
attr recordingmode vector
attr source guardBandStateChanged
attr title "guard band state"
attr type enum
vector 181 simpleTsn.bridge3.eth[2].macLayer.queue.transmissionGate[2] gateState:vector ETV
attr enum CLOSED,OPEN
attr interpolationmode sample-hold
attr moduledisplaypath simpleTsn.bridge3.eth[2].macLayer.queue.control
attr recordingmode vector
attr source gateStateChanged
attr title "gate state"
attr type enum
vector 182 simpleTsn.bridge3.eth[2].macLayer.queue.transmissionGate[2] guardBandState:vector ETV
attr enum ON,OFF
attr interpolationmode sample-hold
attr moduledisplaypath simpleTsn.bridge3.eth[2].macLayer.queue.control
attr recordingmode vector
attr source guardBandStateChanged
attr title "guard band state"
attr type enum
vector 183 simpleTsn.bridge3.eth[2].macLayer.queue.transmissionGate[3] gateState:vector ETV
attr enum CLOSED,OPEN
attr interpolationmode sample-hold
attr moduledisplaypath simpleTsn.bridge3.eth[2].macLayer.queue.p3
attr recordingmode vector
attr source gateStateChanged
attr title "gate state"
attr type enum
vector 184 simpleTsn.bridge3.eth[2].macLayer.queue.transmissionGate[3] guardBandState:vector ETV
attr enum ON,OFF
attr interpolationmode sample-hold
attr moduledisplaypath simpleTsn.bridge3.eth[2].macLayer.queue.p3
attr recordingmode vector
attr source guardBandStateChanged
attr title "guard band state"
attr type enum
vector 185 simpleTsn.bridge3.eth[2].macLayer.queue.transmissionGate[4] gateState:vector ETV
attr enum CLOSED,OPEN
attr interpolationmode sample-hold
attr moduledisplaypath simpleTsn.bridge3.eth[2].macLayer.queue.p4
attr recordingmode vector
attr source gateStateChanged
attr title "gate state"
attr type enum
vector 186 simpleTsn.bridge3.eth[2].macLayer.queue.transmissionGate[4] guardBandState:vector ETV
attr enum ON,OFF
attr interpolationmode sample-hold
attr moduledisplaypath simpleTsn.bridge3.eth[2].macLayer.queue.p4
attr recordingmode vector
attr source guardBandStateChanged
attr title "guard band state"
attr type enum
vector 187 simpleTsn.bridge3.eth[2].macLayer.queue.transmissionGate[5] gateState:vector ETV
attr enum CLOSED,OPEN
attr interpolationmode sample-hold
attr moduledisplaypath simpleTsn.bridge3.eth[2].macLayer.queue.p5
attr recordingmode vector
attr source gateStateChanged
attr title "gate state"
attr type enum
vector 188 simpleTsn.bridge3.eth[2].macLayer.queue.transmissionGate[5] guardBandState:vector ETV
attr enum ON,OFF
attr interpolationmode sample-hold
attr moduledisplaypath simpleTsn.bridge3.eth[2].macLayer.queue.p5
attr recordingmode vector
attr source guardBandStateChanged
attr title "guard band state"
attr type enum
vector 189 simpleTsn.bridge3.eth[2].macLayer.queue.transmissionGate[6] gateState:vector ETV
attr enum CLOSED,OPEN
attr interpolationmode sample-hold
attr moduledisplaypath simpleTsn.bridge3.eth[2].macLayer.queue.p6
attr recordingmode vector
attr source gateStateChanged
attr title "gate state"
attr type enum
vector 190 simpleTsn.bridge3.eth[2].macLayer.queue.transmissionGate[6] guardBandState:vector ETV
attr enum ON,OFF
attr interpolationmode sample-hold
attr moduledisplaypath simpleTsn.bridge3.eth[2].macLayer.queue.p6
attr recordingmode vector
attr source guardBandStateChanged
attr title "guard band state"
attr type enum
vector 191 simpleTsn.bridge3.eth[2].macLayer.queue.transmissionGate[7] gateState:vector ETV
attr enum CLOSED,OPEN
attr interpolationmode sample-hold
attr moduledisplaypath simpleTsn.bridge3.eth[2].macLayer.queue.p7
attr recordingmode vector
attr source gateStateChanged
attr title "gate state"
attr type enum
vector 192 simpleTsn.bridge3.eth[2].macLayer.queue.transmissionGate[7] guardBandState:vector ETV
attr enum ON,OFF
attr interpolationmode sample-hold
attr moduledisplaypath simpleTsn.bridge3.eth[2].macLayer.queue.p7
attr recordingmode vector
attr source guardBandStateChanged
attr title "guard band state"
attr type enum
vector 193 simpleTsn.device1.eth[0].macLayer.queue.transmissionGate[0] gateState:vector ETV
attr enum CLOSED,OPEN
attr interpolationmode sample-hold
attr recordingmode vector
attr source gateStateChanged
attr title "gate state"
attr type enum
vector 194 simpleTsn.device1.eth[0].macLayer.queue.transmissionGate[0] guardBandState:vector ETV
attr enum ON,OFF
attr interpolationmode sample-hold
attr recordingmode vector
attr source guardBandStateChanged
attr title "guard band state"
attr type enum
vector 195 simpleTsn.device1.eth[0].macLayer.queue.transmissionGate[1] gateState:vector ETV
attr enum CLOSED,OPEN
attr interpolationmode sample-hold
attr recordingmode vector
attr source gateStateChanged
attr title "gate state"
attr type enum
vector 196 simpleTsn.device1.eth[0].macLayer.queue.transmissionGate[1] guardBandState:vector ETV
attr enum ON,OFF
attr interpolationmode sample-hold
attr recordingmode vector
attr source guardBandStateChanged
attr title "guard band state"
attr type enum
vector 197 simpleTsn.device1.eth[0].macLayer.queue.transmissionGate[2] gateState:vector ETV
attr enum CLOSED,OPEN
attr interpolationmode sample-hold
attr recordingmode vector
attr source gateStateChanged
attr title "gate state"
attr type enum
vector 198 simpleTsn.device1.eth[0].macLayer.queue.transmissionGate[2] guardBandState:vector ETV
attr enum ON,OFF
attr interpolationmode sample-hold
attr recordingmode vector
attr source guardBandStateChanged
attr title "guard band state"
attr type enum
vector 199 simpleTsn.device1.eth[0].macLayer.queue.transmissionGate[3] gateState:vector ETV
attr enum CLOSED,OPEN
attr interpolationmode sample-hold
attr recordingmode vector
attr source gateStateChanged
attr title "gate state"
attr type enum
vector 200 simpleTsn.device1.eth[0].macLayer.queue.transmissionGate[3] guardBandState:vector ETV
attr enum ON,OFF
attr interpolationmode sample-hold
attr recordingmode vector
attr source guardBandStateChanged
attr title "guard band state"
attr type enum
vector 201 simpleTsn.device1.eth[0].macLayer.queue.transmissionGate[4] gateState:vector ETV
attr enum CLOSED,OPEN
attr interpolationmode sample-hold
attr recordingmode vector
attr source gateStateChanged
attr title "gate state"
attr type enum
vector 202 simpleTsn.device1.eth[0].macLayer.queue.transmissionGate[4] guardBandState:vector ETV
attr enum ON,OFF
attr interpolationmode sample-hold
attr recordingmode vector
attr source guardBandStateChanged
attr title "guard band state"
attr type enum
vector 203 simpleTsn.device1.eth[0].macLayer.queue.transmissionGate[5] gateState:vector ETV
attr enum CLOSED,OPEN
attr interpolationmode sample-hold
attr recordingmode vector
attr source gateStateChanged
attr title "gate state"
attr type enum
vector 204 simpleTsn.device1.eth[0].macLayer.queue.transmissionGate[5] guardBandState:vector ETV
attr enum ON,OFF
attr interpolationmode sample-hold
attr recordingmode vector
attr source guardBandStateChanged
attr title "guard band state"
attr type enum
vector 205 simpleTsn.device1.eth[0].macLayer.queue.transmissionGate[6] gateState:vector ETV
attr enum CLOSED,OPEN
attr interpolationmode sample-hold
attr recordingmode vector
attr source gateStateChanged
attr title "gate state"
attr type enum
vector 206 simpleTsn.device1.eth[0].macLayer.queue.transmissionGate[6] guardBandState:vector ETV
attr enum ON,OFF
attr interpolationmode sample-hold
attr recordingmode vector
attr source guardBandStateChanged
attr title "guard band state"
attr type enum
vector 207 simpleTsn.device1.eth[0].macLayer.queue.transmissionGate[7] gateState:vector ETV
attr enum CLOSED,OPEN
attr interpolationmode sample-hold
attr recordingmode vector
attr source gateStateChanged
attr title "gate state"
attr type enum
vector 208 simpleTsn.device1.eth[0].macLayer.queue.transmissionGate[7] guardBandState:vector ETV
attr enum ON,OFF
attr interpolationmode sample-hold
attr recordingmode vector
attr source guardBandStateChanged
attr title "guard band state"
attr type enum
vector 209 simpleTsn.device2.eth[0].macLayer.queue.transmissionGate[0] gateState:vector ETV
attr enum CLOSED,OPEN
attr interpolationmode sample-hold
attr recordingmode vector
attr source gateStateChanged
attr title "gate state"
attr type enum
vector 210 simpleTsn.device2.eth[0].macLayer.queue.transmissionGate[0] guardBandState:vector ETV
attr enum ON,OFF
attr interpolationmode sample-hold
attr recordingmode vector
attr source guardBandStateChanged
attr title "guard band state"
attr type enum
vector 211 simpleTsn.device2.eth[0].macLayer.queue.transmissionGate[1] gateState:vector ETV
attr enum CLOSED,OPEN
attr interpolationmode sample-hold
attr recordingmode vector
attr source gateStateChanged
attr title "gate state"
attr type enum
vector 212 simpleTsn.device2.eth[0].macLayer.queue.transmissionGate[1] guardBandState:vector ETV
attr enum ON,OFF
attr interpolationmode sample-hold
attr recordingmode vector
attr source guardBandStateChanged
attr title "guard band state"
attr type enum
vector 213 simpleTsn.device2.eth[0].macLayer.queue.transmissionGate[2] gateState:vector ETV
attr enum CLOSED,OPEN
attr interpolationmode sample-hold
attr recordingmode vector
attr source gateStateChanged
attr title "gate state"
attr type enum
vector 214 simpleTsn.device2.eth[0].macLayer.queue.transmissionGate[2] guardBandState:vector ETV
attr enum ON,OFF
attr interpolationmode sample-hold
attr recordingmode vector
attr source guardBandStateChanged
attr title "guard band state"
attr type enum
vector 215 simpleTsn.device2.eth[0].macLayer.queue.transmissionGate[3] gateState:vector ETV
attr enum CLOSED,OPEN
attr interpolationmode sample-hold
attr recordingmode vector
attr source gateStateChanged
attr title "gate state"
attr type enum
vector 216 simpleTsn.device2.eth[0].macLayer.queue.transmissionGate[3] guardBandState:vector ETV
attr enum ON,OFF
attr interpolationmode sample-hold
attr recordingmode vector
attr source guardBandStateChanged
attr title "guard band state"
attr type enum
vector 217 simpleTsn.device2.eth[0].macLayer.queue.transmissionGate[4] gateState:vector ETV
attr enum CLOSED,OPEN
attr interpolationmode sample-hold
attr recordingmode vector
attr source gateStateChanged
attr title "gate state"
attr type enum
vector 218 simpleTsn.device2.eth[0].macLayer.queue.transmissionGate[4] guardBandState:vector ETV
attr enum ON,OFF
attr interpolationmode sample-hold
attr recordingmode vector
attr source guardBandStateChanged
attr title "guard band state"
attr type enum
vector 219 simpleTsn.device2.eth[0].macLayer.queue.transmissionGate[5] gateState:vector ETV
attr enum CLOSED,OPEN
attr interpolationmode sample-hold
attr recordingmode vector
attr source gateStateChanged
attr title "gate state"
attr type enum
vector 220 simpleTsn.device2.eth[0].macLayer.queue.transmissionGate[5] guardBandState:vector ETV
attr enum ON,OFF
attr interpolationmode sample-hold
attr recordingmode vector
attr source guardBandStateChanged
attr title "guard band state"
attr type enum
vector 221 simpleTsn.device2.eth[0].macLayer.queue.transmissionGate[6] gateState:vector ETV
attr enum CLOSED,OPEN
attr interpolationmode sample-hold
attr recordingmode vector
attr source gateStateChanged
attr title "gate state"
attr type enum
vector 222 simpleTsn.device2.eth[0].macLayer.queue.transmissionGate[6] guardBandState:vector ETV
attr enum ON,OFF
attr interpolationmode sample-hold
attr recordingmode vector
attr source guardBandStateChanged
attr title "guard band state"
attr type enum
vector 223 simpleTsn.device2.eth[0].macLayer.queue.transmissionGate[7] gateState:vector ETV
attr enum CLOSED,OPEN
attr interpolationmode sample-hold
attr recordingmode vector
attr source gateStateChanged
attr title "gate state"
attr type enum
vector 224 simpleTsn.device2.eth[0].macLayer.queue.transmissionGate[7] guardBandState:vector ETV
attr enum ON,OFF
attr interpolationmode sample-hold
attr recordingmode vector
attr source guardBandStateChanged
attr title "guard band state"
attr type enum
vector 225 simpleTsn.device3.eth[0].macLayer.queue.transmissionGate[0] gateState:vector ETV
attr enum CLOSED,OPEN
attr interpolationmode sample-hold
attr recordingmode vector
attr source gateStateChanged
attr title "gate state"
attr type enum
vector 226 simpleTsn.device3.eth[0].macLayer.queue.transmissionGate[0] guardBandState:vector ETV
attr enum ON,OFF
attr interpolationmode sample-hold
attr recordingmode vector
attr source guardBandStateChanged
attr title "guard band state"
attr type enum
vector 227 simpleTsn.device3.eth[0].macLayer.queue.transmissionGate[1] gateState:vector ETV
attr enum CLOSED,OPEN
attr interpolationmode sample-hold
attr recordingmode vector
attr source gateStateChanged
attr title "gate state"
attr type enum
vector 228 simpleTsn.device3.eth[0].macLayer.queue.transmissionGate[1] guardBandState:vector ETV
attr enum ON,OFF
attr interpolationmode sample-hold
attr recordingmode vector
attr source guardBandStateChanged
attr title "guard band state"
attr type enum
vector 229 simpleTsn.device3.eth[0].macLayer.queue.transmissionGate[2] gateState:vector ETV
attr enum CLOSED,OPEN
attr interpolationmode sample-hold
attr recordingmode vector
attr source gateStateChanged
attr title "gate state"
attr type enum
vector 230 simpleTsn.device3.eth[0].macLayer.queue.transmissionGate[2] guardBandState:vector ETV
attr enum ON,OFF
attr interpolationmode sample-hold
attr recordingmode vector
attr source guardBandStateChanged
attr title "guard band state"
attr type enum
vector 231 simpleTsn.device3.eth[0].macLayer.queue.transmissionGate[3] gateState:vector ETV
attr enum CLOSED,OPEN
attr interpolationmode sample-hold
attr recordingmode vector
attr source gateStateChanged
attr title "gate state"
attr type enum
vector 232 simpleTsn.device3.eth[0].macLayer.queue.transmissionGate[3] guardBandState:vector ETV
attr enum ON,OFF
attr interpolationmode sample-hold
attr recordingmode vector
attr source guardBandStateChanged
attr title "guard band state"
attr type enum
vector 233 simpleTsn.device3.eth[0].macLayer.queue.transmissionGate[4] gateState:vector ETV
attr enum CLOSED,OPEN
attr interpolationmode sample-hold
attr recordingmode vector
attr source gateStateChanged
attr title "gate state"
attr type enum
vector 234 simpleTsn.device3.eth[0].macLayer.queue.transmissionGate[4] guardBandState:vector ETV
attr enum ON,OFF
attr interpolationmode sample-hold
attr recordingmode vector
attr source guardBandStateChanged
attr title "guard band state"
attr type enum
vector 235 simpleTsn.device3.eth[0].macLayer.queue.transmissionGate[5] gateState:vector ETV
attr enum CLOSED,OPEN
attr interpolationmode sample-hold
attr recordingmode vector
attr source gateStateChanged
attr title "gate state"
attr type enum
vector 236 simpleTsn.device3.eth[0].macLayer.queue.transmissionGate[5] guardBandState:vector ETV
attr enum ON,OFF
attr interpolationmode sample-hold
attr recordingmode vector
attr source guardBandStateChanged
attr title "guard band state"
attr type enum
vector 237 simpleTsn.device3.eth[0].macLayer.queue.transmissionGate[6] gateState:vector ETV
attr enum CLOSED,OPEN
attr interpolationmode sample-hold
attr recordingmode vector
attr source gateStateChanged
attr title "gate state"
attr type enum
vector 238 simpleTsn.device3.eth[0].macLayer.queue.transmissionGate[6] guardBandState:vector ETV
attr enum ON,OFF
attr interpolationmode sample-hold
attr recordingmode vector
attr source guardBandStateChanged
attr title "guard band state"
attr type enum
vector 239 simpleTsn.device3.eth[0].macLayer.queue.transmissionGate[7] gateState:vector ETV
attr enum CLOSED,OPEN
attr interpolationmode sample-hold
attr recordingmode vector
attr source gateStateChanged
attr title "gate state"
attr type enum
vector 240 simpleTsn.device3.eth[0].macLayer.queue.transmissionGate[7] guardBandState:vector ETV
attr enum ON,OFF
attr interpolationmode sample-hold
attr recordingmode vector
attr source guardBandStateChanged
attr title "guard band state"
attr type enum
vector 241 simpleTsn.detCom1.dstt[0].eth[0].macLayer.queue.transmissionGate[0] gateState:vector ETV
attr enum CLOSED,OPEN
attr interpolationmode sample-hold
attr recordingmode vector
attr source gateStateChanged
attr title "gate state"
attr type enum
vector 242 simpleTsn.detCom1.dstt[0].eth[0].macLayer.queue.transmissionGate[0] guardBandState:vector ETV
attr enum ON,OFF
attr interpolationmode sample-hold
attr recordingmode vector
attr source guardBandStateChanged
attr title "guard band state"
attr type enum
vector 243 simpleTsn.detCom1.dstt[0].eth[0].macLayer.queue.transmissionGate[1] gateState:vector ETV
attr enum CLOSED,OPEN
attr interpolationmode sample-hold
attr recordingmode vector
attr source gateStateChanged
attr title "gate state"
attr type enum
vector 244 simpleTsn.detCom1.dstt[0].eth[0].macLayer.queue.transmissionGate[1] guardBandState:vector ETV
attr enum ON,OFF
attr interpolationmode sample-hold
attr recordingmode vector
attr source guardBandStateChanged
attr title "guard band state"
attr type enum
vector 245 simpleTsn.detCom1.dstt[0].eth[0].macLayer.queue.transmissionGate[2] gateState:vector ETV
attr enum CLOSED,OPEN
attr interpolationmode sample-hold
attr recordingmode vector
attr source gateStateChanged
attr title "gate state"
attr type enum
vector 246 simpleTsn.detCom1.dstt[0].eth[0].macLayer.queue.transmissionGate[2] guardBandState:vector ETV
attr enum ON,OFF
attr interpolationmode sample-hold
attr recordingmode vector
attr source guardBandStateChanged
attr title "guard band state"
attr type enum
vector 247 simpleTsn.detCom1.dstt[0].eth[0].macLayer.queue.transmissionGate[3] gateState:vector ETV
attr enum CLOSED,OPEN
attr interpolationmode sample-hold
attr recordingmode vector
attr source gateStateChanged
attr title "gate state"
attr type enum
vector 248 simpleTsn.detCom1.dstt[0].eth[0].macLayer.queue.transmissionGate[3] guardBandState:vector ETV
attr enum ON,OFF
attr interpolationmode sample-hold
attr recordingmode vector
attr source guardBandStateChanged
attr title "guard band state"
attr type enum
vector 249 simpleTsn.detCom1.dstt[0].eth[0].macLayer.queue.transmissionGate[4] gateState:vector ETV
attr enum CLOSED,OPEN
attr interpolationmode sample-hold
attr recordingmode vector
attr source gateStateChanged
attr title "gate state"
attr type enum
vector 250 simpleTsn.detCom1.dstt[0].eth[0].macLayer.queue.transmissionGate[4] guardBandState:vector ETV
attr enum ON,OFF
attr interpolationmode sample-hold
attr recordingmode vector
attr source guardBandStateChanged
attr title "guard band state"
attr type enum
vector 251 simpleTsn.detCom1.dstt[0].eth[0].macLayer.queue.transmissionGate[5] gateState:vector ETV
attr enum CLOSED,OPEN
attr interpolationmode sample-hold
attr recordingmode vector
attr source gateStateChanged
attr title "gate state"
attr type enum
vector 252 simpleTsn.detCom1.dstt[0].eth[0].macLayer.queue.transmissionGate[5] guardBandState:vector ETV
attr enum ON,OFF
attr interpolationmode sample-hold
attr recordingmode vector
attr source guardBandStateChanged
attr title "guard band state"
attr type enum
vector 253 simpleTsn.detCom1.dstt[0].eth[0].macLayer.queue.transmissionGate[6] gateState:vector ETV
attr enum CLOSED,OPEN
attr interpolationmode sample-hold
attr recordingmode vector
attr source gateStateChanged
attr title "gate state"
attr type enum
vector 254 simpleTsn.detCom1.dstt[0].eth[0].macLayer.queue.transmissionGate[6] guardBandState:vector ETV
attr enum ON,OFF
attr interpolationmode sample-hold
attr recordingmode vector
attr source guardBandStateChanged
attr title "guard band state"
attr type enum
vector 255 simpleTsn.detCom1.dstt[0].eth[0].macLayer.queue.transmissionGate[7] gateState:vector ETV
attr enum CLOSED,OPEN
attr interpolationmode sample-hold
attr recordingmode vector
attr source gateStateChanged
attr title "gate state"
attr type enum
vector 256 simpleTsn.detCom1.dstt[0].eth[0].macLayer.queue.transmissionGate[7] guardBandState:vector ETV
attr enum ON,OFF
attr interpolationmode sample-hold
attr recordingmode vector
attr source guardBandStateChanged
attr title "guard band state"
attr type enum
vector 257 simpleTsn.detCom1.dstt[0].tt[0].macLayer.queue.transmissionGate[0] gateState:vector ETV
attr enum CLOSED,OPEN
attr interpolationmode sample-hold
attr recordingmode vector
attr source gateStateChanged
attr title "gate state"
attr type enum
vector 258 simpleTsn.detCom1.dstt[0].tt[0].macLayer.queue.transmissionGate[0] guardBandState:vector ETV
attr enum ON,OFF
attr interpolationmode sample-hold
attr recordingmode vector
attr source guardBandStateChanged
attr title "guard band state"
attr type enum
vector 259 simpleTsn.detCom1.dstt[0].tt[0].macLayer.queue.transmissionGate[1] gateState:vector ETV
attr enum CLOSED,OPEN
attr interpolationmode sample-hold
attr recordingmode vector
attr source gateStateChanged
attr title "gate state"
attr type enum
vector 260 simpleTsn.detCom1.dstt[0].tt[0].macLayer.queue.transmissionGate[1] guardBandState:vector ETV
attr enum ON,OFF
attr interpolationmode sample-hold
[...]
1134	1225605 632 2378 2378 0.1 4 40 0 0 0 0
1135	1226237 632 2378 2378 0.1 4 40 0 0 0 0
1136	1226869 632 2378 2378 0.1 4 40 0 0 0 0
1137	1227501 632 2378 2378 0.1 4 40 0 0 0 0
1138	1228133 632 2378 2378 0.1 4 40 0 0 0 0
1139	1228765 632 2378 2378 0.1 4 40 0 0 0 0
1140	1229397 632 2378 2378 0.1 4 40 0 0 0 0
1141	1230029 632 2378 2378 0.1 4 40 0 0 0 0
1142	1230661 632 2378 2378 0.1 4 40 0 0 0 0
1143	1231293 632 2378 2378 0.1 4 40 0 0 0 0
1144	1231925 632 2378 2378 0.1 4 40 0 0 0 0
1145	1232557 632 2378 2378 0.1 4 40 0 0 0 0
1146	1233189 632 2378 2378 0.1 4 40 0 0 0 0
1147	1233821 632 2378 2378 0.1 4 40 0 0 0 0
1148	1234453 632 2378 2378 0.1 4 40 0 0 0 0
1149	1235085 632 2378 2378 0.1 4 40 0 0 0 0
1150	1235717 632 2378 2378 0.1 4 40 0 0 0 0
1151	1236349 632 2378 2378 0.1 4 40 0 0 0 0
1152	1236981 632 2378 2378 0.1 4 40 0 0 0 0
1153	1237613 632 2378 2378 0.1 4 40 0 0 0 0
1154	1238245 632 2378 2378 0.1 4 40 0 0 0 0
1155	1238877 632 2378 2378 0.1 4 40 0 0 0 0
1156	1239509 632 2378 2378 0.1 4 40 0 0 0 0
1157	1240141 632 2378 2378 0.1 4 40 0 0 0 0
1158	1240773 632 2378 2378 0.1 4 40 0 0 0 0
1159	1241405 632 2378 2378 0.1 4 40 0 0 0 0
1160	1242037 632 2378 2378 0.1 4 40 0 0 0 0
1161	1242669 632 2378 2378 0.1 4 40 0 0 0 0
1162	1243301 632 2378 2378 0.1 4 40 0 0 0 0
1163	1243933 632 2378 2378 0.1 4 40 0 0 0 0
1164	1244565 632 2378 2378 0.1 4 40 0 0 0 0
1165	1245197 632 2378 2378 0.1 4 40 0 0 0 0
1166	1245829 632 2378 2378 0.1 4 40 0 0 0 0
1167	1246461 632 2378 2378 0.1 4 40 0 0 0 0
1168	1247093 632 2378 2378 0.1 4 40 0 0 0 0
1169	1247725 632 2378 2378 0.1 4 40 0 0 0 0
1170	1248357 632 2378 2378 0.1 4 40 0 0 0 0
1171	1248989 632 2378 2378 0.1 4 40 0 0 0 0
1172	1249621 632 2378 2378 0.1 4 40 0 0 0 0
1173	1250253 632 2378 2378 0.1 4 40 0 0 0 0
1174	1250885 632 2378 2378 0.1 4 40 0 0 0 0
1175	1251517 632 2378 2378 0.1 4 40 0 0 0 0
1176	1252149 632 2378 2378 0.1 4 40 0 0 0 0
1177	1252781 632 2378 2378 0.1 4 40 0 0 0 0
1178	1253413 632 2378 2378 0.1 4 40 0 0 0 0
1179	1254045 632 2378 2378 0.1 4 40 0 0 0 0
1180	1254677 632 2378 2378 0.1 4 40 0 0 0 0
1181	1255309 632 2378 2378 0.1 4 40 0 0 0 0
1182	1255941 632 2378 2378 0.1 4 40 0 0 0 0
1183	1256573 632 2378 2378 0.1 4 40 0 0 0 0
1184	1257205 632 2378 2378 0.1 4 40 0 0 0 0
1185	1257837 632 2378 2378 0.1 4 40 0 0 0 0
1186	1258469 632 2378 2378 0.1 4 40 0 0 0 0
1187	1259101 632 2378 2378 0.1 4 40 0 0 0 0
1188	1259733 632 2378 2378 0.1 4 40 0 0 0 0
1189	1260365 632 2378 2378 0.1 4 40 0 0 0 0
1190	1260997 632 2378 2378 0.1 4 40 0 0 0 0
1191	1261629 632 2378 2378 0.1 4 40 0 0 0 0
1192	1262261 632 2378 2378 0.1 4 40 0 0 0 0
1193	1262893 632 2378 2378 0.1 4 40 0 0 0 0
1194	1263525 632 2378 2378 0.1 4 40 0 0 0 0
1195	1264157 632 2378 2378 0.1 4 40 0 0 0 0
1196	1264789 632 2378 2378 0.1 4 40 0 0 0 0
1197	1265421 632 2378 2378 0.1 4 40 0 0 0 0
1198	1266053 632 2378 2378 0.1 4 40 0 0 0 0
1199	1266685 632 2378 2378 0.1 4 40 0 0 0 0
1200	1267317 632 2378 2378 0.1 4 40 0 0 0 0
1201	1267949 632 2378 2378 0.1 4 40 0 0 0 0
1202	1268581 632 2378 2378 0.1 4 40 0 0 0 0
1203	1269213 632 2378 2378 0.1 4 40 0 0 0 0
1204	1269845 632 2378 2378 0.1 4 40 0 0 0 0
1205	1270477 632 2378 2378 0.1 4 40 0 0 0 0
1206	1271109 632 2378 2378 0.1 4 40 0 0 0 0
1207	1271741 632 2378 2378 0.1 4 40 0 0 0 0
1208	1272373 632 2378 2378 0.1 4 40 0 0 0 0
1209	1273005 632 2378 2378 0.1 4 40 0 0 0 0
1210	1273637 632 2378 2378 0.1 4 40 0 0 0 0
1211	1274269 632 2378 2378 0.1 4 40 0 0 0 0
1212	1274901 632 2378 2378 0.1 4 40 0 0 0 0
1213	1275533 632 2378 2378 0.1 4 40 0 0 0 0
1214	1276165 632 2378 2378 0.1 4 40 0 0 0 0
1215	1276797 632 2378 2378 0.1 4 40 0 0 0 0
1216	1277429 632 2378 2378 0.1 4 40 0 0 0 0
1217	1278061 632 2378 2378 0.1 4 40 0 0 0 0
1218	1278693 632 2378 2378 0.1 4 40 0 0 0 0
1219	1279325 632 2378 2378 0.1 4 40 0 0 0 0
1220	1279957 632 2378 2378 0.1 4 40 0 0 0 0
1221	1280589 632 2378 2378 0.1 4 40 0 0 0 0
1222	1281221 632 2378 2378 0.1 4 40 0 0 0 0
1223	1281853 632 2378 2378 0.1 4 40 0 0 0 0
1224	1282485 632 2378 2378 0.1 4 40 0 0 0 0
1225	1283117 632 2378 2378 0.1 4 40 0 0 0 0
1226	1283749 632 2378 2378 0.1 4 40 0 0 0 0
1227	1284381 632 2378 2378 0.1 4 40 0 0 0 0
1228	1285013 632 2378 2378 0.1 4 40 0 0 0 0
1229	1285645 632 2378 2378 0.1 4 40 0 0 0 0
1230	1286277 632 2378 2378 0.1 4 40 0 0 0 0
1231	1286909 632 2378 2378 0.1 4 40 0 0 0 0
1232	1287541 632 2378 2378 0.1 4 40 0 0 0 0
1233	1288173 632 2378 2378 0.1 4 40 0 0 0 0
1234	1288805 632 2378 2378 0.1 4 40 0 0 0 0
1235	1289437 632 2378 2378 0.1 4 40 0 0 0 0
1236	1290069 632 2378 2378 0.1 4 40 0 0 0 0
1237	1290701 632 2378 2378 0.1 4 40 0 0 0 0
1238	1291333 632 2378 2378 0.1 4 40 0 0 0 0
1239	1291965 632 2378 2378 0.1 4 40 0 0 0 0
1240	1292597 632 2378 2378 0.1 4 40 0 0 0 0
1241	1293229 632 2378 2378 0.1 4 40 0 0 0 0
1242	1293861 632 2378 2378 0.1 4 40 0 0 0 0
1243	1294493 632 2378 2378 0.1 4 40 0 0 0 0
1244	1295125 632 2378 2378 0.1 4 40 0 0 0 0
1245	1295757 632 2378 2378 0.1 4 40 0 0 0 0
1246	1296389 632 2378 2378 0.1 4 40 0 0 0 0
1247	1297021 632 2378 2378 0.1 4 40 0 0 0 0
1248	1297653 632 2378 2378 0.1 4 40 0 0 0 0
1249	1298285 632 2378 2378 0.1 4 40 0 0 0 0
1250	1298917 632 2378 2378 0.1 4 40 0 0 0 0
1251	1299549 632 2378 2378 0.1 4 40 0 0 0 0
1252	1300181 632 2378 2378 0.1 4 40 0 0 0 0
1253	1300813 632 2378 2378 0.1 4 40 0 0 0 0
1254	1301445 632 2378 2378 0.1 4 40 0 0 0 0
1255	1302077 632 2378 2378 0.1 4 40 0 0 0 0
1256	1302709 632 2378 2378 0.1 4 40 0 0 0 0
1257	1303341 632 2378 2378 0.1 4 40 0 0 0 0
1258	1303973 632 2378 2378 0.1 4 40 0 0 0 0
1259	1304605 632 2378 2378 0.1 4 40 0 0 0 0
1260	1305237 632 2378 2378 0.1 4 40 0 0 0 0
1261	1305869 632 2378 2378 0.1 4 40 0 0 0 0
1262	1306501 632 2378 2378 0.1 4 40 0 0 0 0
1263	1307133 632 2378 2378 0.1 4 40 0 0 0 0
1264	1307765 632 2378 2378 0.1 4 40 0 0 0 0
1265	1308397 632 2378 2378 0.1 4 40 0 0 0 0
1266	1309029 632 2378 2378 0.1 4 40 0 0 0 0
1267	1309661 632 2378 2378 0.1 4 40 0 0 0 0
1268	1310293 632 2378 2378 0.1 4 40 0 0 0 0
1269	1310925 632 2378 2378 0.1 4 40 0 0 0 0
1270	1311557 632 2378 2378 0.1 4 40 0 0 0 0
1271	1312189 632 2378 2378 0.1 4 40 0 0 0 0
1272	1312821 632 2378 2378 0.1 4 40 0 0 0 0
1273	1313453 632 2378 2378 0.1 4 40 0 0 0 0
1274	1314085 632 2378 2378 0.1 4 40 0 0 0 0
1275	1314717 632 2378 2378 0.1 4 40 0 0 0 0
1276	1315349 632 2378 2378 0.1 4 40 0 0 0 0
1277	1315981 632 2378 2378 0.1 4 40 0 0 0 0
1278	1316613 632 2378 2378 0.1 4 40 0 0 0 0
1279	1317245 632 2378 2378 0.1 4 40 0 0 0 0
1280	1317877 632 2378 2378 0.1 4 40 0 0 0 0
1281	1318509 632 2378 2378 0.1 4 40 0 0 0 0
1282	1319141 632 2378 2378 0.1 4 40 0 0 0 0
1283	1319773 632 2378 2378 0.1 4 40 0 0 0 0
1284	1320405 632 2378 2378 0.1 4 40 0 0 0 0
1285	1321037 632 2378 2378 0.1 4 40 0 0 0 0
1286	1321669 632 2378 2378 0.1 4 40 0 0 0 0
1287	1322301 632 2378 2378 0.1 4 40 0 0 0 0
1288	1322933 632 2378 2378 0.1 4 40 0 0 0 0
1289	1323565 632 2378 2378 0.1 4 40 0 0 0 0
1290	1324197 632 2378 2378 0.1 4 40 0 0 0 0
1291	1324829 632 2378 2378 0.1 4 40 0 0 0 0
1292	1325461 632 2378 2378 0.1 4 40 0 0 0 0
1293	1326093 632 2378 2378 0.1 4 40 0 0 0 0
1294	1326725 632 2378 2378 0.1 4 40 0 0 0 0
1295	1327357 632 2378 2378 0.1 4 40 0 0 0 0
1296	1327989 632 2378 2378 0.1 4 40 0 0 0 0
1297	1328621 632 2378 2378 0.1 4 40 0 0 0 0
1298	1329253 632 2378 2378 0.1 4 40 0 0 0 0
1299	1329885 632 2378 2378 0.1 4 40 0 0 0 0
1300	1330517 632 2378 2378 0.1 4 40 0 0 0 0
1301	1331149 632 2378 2378 0.1 4 40 0 0 0 0
1302	1331781 632 2378 2378 0.1 4 40 0 0 0 0
1303	1332413 632 2378 2378 0.1 4 40 0 0 0 0
1304	1333045 632 2378 2378 0.1 4 40 0 0 0 0
1305	1333677 632 2378 2378 0.1 4 40 0 0 0 0
1306	1334309 632 2378 2378 0.1 4 40 0 0 0 0
1307	1334941 632 2378 2378 0.1 4 40 0 0 0 0
1308	1335573 632 2378 2378 0.1 4 40 0 0 0 0
1309	1336205 632 2378 2378 0.1 4 40 0 0 0 0
1310	1336837 632 2378 2378 0.1 4 40 0 0 0 0
1311	1337469 632 2378 2378 0.1 4 40 0 0 0 0
1312	1338101 632 2378 2378 0.1 4 40 0 0 0 0
1313	1338733 632 2378 2378 0.1 4 40 0 0 0 0
1314	1339365 632 2378 2378 0.1 4 40 0 0 0 0
1315	1339997 632 2378 2378 0.1 4 40 0 0 0 0
1316	1340629 632 2378 2378 0.1 4 40 0 0 0 0
1317	1341261 632 2378 2378 0.1 4 40 0 0 0 0
1318	1341893 632 2378 2378 0.1 4 40 0 0 0 0
1319	1342525 632 2378 2378 0.1 4 40 0 0 0 0
1320	1343157 632 2378 2378 0.1 4 40 0 0 0 0
1321	1343789 632 2378 2378 0.1 4 40 0 0 0 0
1322	1344421 632 2378 2378 0.1 4 40 0 0 0 0
1323	1345053 632 2378 2378 0.1 4 40 0 0 0 0
1324	1345685 632 2378 2378 0.1 4 40 0 0 0 0
1325	1346317 632 2378 2378 0.1 4 40 0 0 0 0
1326	1346949 632 2378 2378 0.1 4 40 0 0 0 0
1327	1347581 632 2378 2378 0.1 4 40 0 0 0 0
1328	1348213 632 2378 2378 0.1 4 40 0 0 0 0
1329	1348845 632 2378 2378 0.1 4 40 0 0 0 0
1330	1349477 632 2378 2378 0.1 4 40 0 0 0 0
1331	1350109 632 2378 2378 0.1 4 40 0 0 0 0
1332	1350741 632 2378 2378 0.1 4 40 0 0 0 0
1333	1351373 632 2378 2378 0.1 4 40 0 0 0 0
1334	1352005 632 2378 2378 0.1 4 40 0 0 0 0
1335	1352637 632 2378 2378 0.1 4 40 0 0 0 0
1336	1353269 632 2378 2378 0.1 4 40 0 0 0 0
1337	1353901 632 2378 2378 0.1 4 40 0 0 0 0
1338	1354533 632 2378 2378 0.1 4 40 0 0 0 0
1339	1355165 632 2378 2378 0.1 4 40 0 0 0 0
1340	1355797 632 2378 2378 0.1 4 40 0 0 0 0
1341	1356429 632 2378 2378 0.1 4 40 0 0 0 0
1342	1357061 632 2378 2378 0.1 4 40 0 0 0 0
1343	1357693 632 2378 2378 0.1 4 40 0 0 0 0
1344	1358325 632 2378 2378 0.1 4 40 0 0 0 0
1345	1358957 632 2378 2378 0.1 4 40 0 0 0 0
1346	1359589 632 2378 2378 0.1 4 40 0 0 0 0
1347	1360221 632 2378 2378 0.1 4 40 0 0 0 0
1348	1360853 632 2378 2378 0.1 4 40 0 0 0 0
1349	1361485 632 2378 2378 0.1 4 40 0 0 0 0
1350	1362117 632 2378 2378 0.1 4 40 0 0 0 0
1351	1362749 632 2378 2378 0.1 4 40 0 0 0 0
1352	1363381 632 2378 2378 0.1 4 40 0 0 0 0
1353	1364013 632 2378 2378 0.1 4 40 0 0 0 0
1354	1364645 632 2378 2378 0.1 4 40 0 0 0 0
1355	1365277 632 2378 2378 0.1 4 40 0 0 0 0
1356	1365909 632 2378 2378 0.1 4 40 0 0 0 0
1357	1366541 632 2378 2378 0.1 4 40 0 0 0 0
1358	1367173 632 2378 2378 0.1 4 40 0 0 0 0
1359	1367805 632 2378 2378 0.1 4 40 0 0 0 0
1360	1368437 632 2378 2378 0.1 4 40 0 0 0 0
1361	1369069 632 2378 2378 0.1 4 40 0 0 0 0
1362	1369701 632 2378 2378 0.1 4 40 0 0 0 0
1363	1370333 632 2378 2378 0.1 4 40 0 0 0 0
1364	1370965 632 2378 2378 0.1 4 40 0 0 0 0
1365	1371597 632 2378 2378 0.1 4 40 0 0 0 0
1366	1372229 632 2378 2378 0.1 4 40 0 0 0 0
1367	1372861 632 2378 2378 0.1 4 40 0 0 0 0
1368	1373493 632 2378 2378 0.1 4 40 0 0 0 0
1369	1374125 632 2378 2378 0.1 4 40 0 0 0 0
1370	1374757 632 2378 2378 0.1 4 40 0 0 0 0
1371	1375389 632 2378 2378 0.1 4 40 0 0 0 0
1372	1376021 632 2378 2378 0.1 4 40 0 0 0 0
1373	1376653 632 2378 2378 0.1 4 40 0 0 0 0
1374	1377285 632 2378 2378 0.1 4 40 0 0 0 0
1375	1377917 632 2378 2378 0.1 4 40 0 0 0 0
1376	1378549 632 2378 2378 0.1 4 40 0 0 0 0
1377	1379181 632 2378 2378 0.1 4 40 0 0 0 0
1378	1379813 632 2378 2378 0.1 4 40 0 0 0 0
1379	1380445 632 2378 2378 0.1 4 40 0 0 0 0
1380	1381077 632 2378 2378 0.1 4 40 0 0 0 0
1381	1381709 632 2378 2378 0.1 4 40 0 0 0 0
1382	1382341 632 2378 2378 0.1 4 40 0 0 0 0
1383	1382973 632 2378 2378 0.1 4 40 0 0 0 0
1384	1383605 632 2378 2378 0.1 4 40 0 0 0 0
1385	1384237 632 2378 2378 0.1 4 40 0 0 0 0
1386	1384869 632 2378 2378 0.1 4 40 0 0 0 0
1387	1385501 632 2378 2378 0.1 4 40 0 0 0 0
1388	1386133 632 2378 2378 0.1 4 40 0 0 0 0
1389	1386765 632 2378 2378 0.1 4 40 0 0 0 0
1390	1387397 632 2378 2378 0.1 4 40 0 0 0 0
1391	1388029 632 2378 2378 0.1 4 40 0 0 0 0
1392	1388661 632 2378 2378 0.1 4 40 0 0 0 0
1393	1389293 632 2378 2378 0.1 4 40 0 0 0 0
1394	1389925 632 2378 2378 0.1 4 40 0 0 0 0
1395	1390557 632 2378 2378 0.1 4 40 0 0 0 0
1396	1391189 632 2378 2378 0.1 4 40 0 0 0 0
1397	1391821 632 2378 2378 0.1 4 40 0 0 0 0
1398	1392453 632 2378 2378 0.1 4 40 0 0 0 0
1399	1393085 632 2378 2378 0.1 4 40 0 0 0 0
1400	1393717 632 2378 2378 0.1 4 40 0 0 0 0
1401	1394349 632 2378 2378 0.1 4 40 0 0 0 0
1402	1394981 632 2378 2378 0.1 4 40 0 0 0 0
1403	1395613 632 2378 2378 0.1 4 40 0 0 0 0
1404	1396245 632 2378 2378 0.1 4 40 0 0 0 0
1405	1396877 632 2378 2378 0.1 4 40 0 0 0 0
1406	1397509 632 2378 2378 0.1 4 40 0 0 0 0
1407	1398141 632 2378 2378 0.1 4 40 0 0 0 0
1408	1398773 632 2378 2378 0.1 4 40 0 0 0 0
1409	1399405 632 2378 2378 0.1 4 40 0 0 0 0
1410	1400037 632 2378 2378 0.1 4 40 0 0 0 0
1411	1400669 632 2378 2378 0.1 4 40 0 0 0 0
1412	1401301 632 2378 2378 0.1 4 40 0 0 0 0
1413	1401933 632 2378 2378 0.1 4 40 0 0 0 0
1414	1402565 632 2378 2378 0.1 4 40 0 0 0 0
1415	1403197 632 2378 2378 0.1 4 40 0 0 0 0
1416	1403829 632 2378 2378 0.1 4 40 0 0 0 0
1417	1404461 632 2378 2378 0.1 4 40 0 0 0 0
1418	1405093 632 2378 2378 0.1 4 40 0 0 0 0
1419	1405725 632 2378 2378 0.1 4 40 0 0 0 0
1420	1406357 632 2378 2378 0.1 4 40 0 0 0 0
1421	1406989 632 2378 2378 0.1 4 40 0 0 0 0
1422	1407621 632 2378 2378 0.1 4 40 0 0 0 0
1423	1408253 632 2378 2378 0.1 4 40 0 0 0 0
1424	1408885 632 2378 2378 0.1 4 40 0 0 0 0
1425	1409517 632 2378 2378 0.1 4 40 0 0 0 0
1426	1410149 632 2378 2378 0.1 4 40 0 0 0 0
1427	1410781 632 2378 2378 0.1 4 40 0 0 0 0
1428	1411413 632 2378 2378 0.1 4 40 0 0 0 0
1429	1412045 632 2378 2378 0.1 4 40 0 0 0 0
1430	1412677 632 2378 2378 0.1 4 40 0 0 0 0
1431	1413309 632 2378 2378 0.1 4 40 0 0 0 0
1432	1413941 632 2378 2378 0.1 4 40 0 0 0 0
1433	1414573 632 2378 2378 0.1 4 40 0 0 0 0
1434	1415205 632 2378 2378 0.1 4 40 0 0 0 0
1435	1415837 632 2378 2378 0.1 4 40 0 0 0 0
1436	1416469 632 2378 2378 0.1 4 40 0 0 0 0
1437	1417101 632 2378 2378 0.1 4 40 0 0 0 0
1438	1417733 632 2378 2378 0.1 4 40 0 0 0 0
1439	1418365 632 2378 2378 0.1 4 40 0 0 0 0
1440	1418997 632 2378 2378 0.1 4 40 0 0 0 0
1441	1419629 632 2378 2378 0.1 4 40 0 0 0 0
1442	1420261 632 2378 2378 0.1 4 40 0 0 0 0
1443	1420893 632 2378 2378 0.1 4 40 0 0 0 0
1444	1421525 632 2378 2378 0.1 4 40 0 0 0 0
1445	1422157 632 2378 2378 0.1 4 40 0 0 0 0
1446	1422789 632 2378 2378 0.1 4 40 0 0 0 0
1447	1423421 632 2378 2378 0.1 4 40 0 0 0 0
1448	1424053 632 2378 2378 0.1 4 40 0 0 0 0
1449	1424685 632 2378 2378 0.1 4 40 0 0 0 0
1450	1425317 632 2378 2378 0.1 4 40 0 0 0 0
1451	1425949 632 2378 2378 0.1 4 40 0 0 0 0
1452	1426581 632 2378 2378 0.1 4 40 0 0 0 0
1453	1427213 632 2378 2378 0.1 4 40 0 0 0 0
1454	1427845 632 2378 2378 0.1 4 40 0 0 0 0
1455	1428477 632 2378 2378 0.1 4 40 0 0 0 0
1456	1429109 632 2378 2378 0.1 4 40 0 0 0 0
1457	1429741 632 2378 2378 0.1 4 40 0 0 0 0
1458	1430373 632 2378 2378 0.1 4 40 0 0 0 0
1459	1431005 632 2378 2378 0.1 4 40 0 0 0 0
1460	1431637 632 2378 2378 0.1 4 40 0 0 0 0
1461	1432269 632 2378 2378 0.1 4 40 0 0 0 0
1462	1432901 632 2378 2378 0.1 4 40 0 0 0 0
1463	1433533 632 2378 2378 0.1 4 40 0 0 0 0
1464	1434165 632 2378 2378 0.1 4 40 0 0 0 0
1465	1434797 632 2378 2378 0.1 4 40 0 0 0 0
1466	1435429 632 2378 2378 0.1 4 40 0 0 0 0
1467	1436061 632 2378 2378 0.1 4 40 0 0 0 0
1468	1436693 632 2378 2378 0.1 4 40 0 0 0 0
1469	1437325 632 2378 2378 0.1 4 40 0 0 0 0
1470	1437957 632 2378 2378 0.1 4 40 0 0 0 0
1471	1438589 632 2378 2378 0.1 4 40 0 0 0 0
1472	1439221 632 2378 2378 0.1 4 40 0 0 0 0
1473	1439853 632 2378 2378 0.1 4 40 0 0 0 0
1474	1440485 632 2378 2378 0.1 4 40 0 0 0 0
1475	1441117 632 2378 2378 0.1 4 40 0 0 0 0
1476	1441749 632 2378 2378 0.1 4 40 0 0 0 0
1477	1442381 632 2378 2378 0.1 4 40 0 0 0 0
1478	1443013 632 2378 2378 0.1 4 40 0 0 0 0
1479	1443645 632 2378 2378 0.1 4 40 0 0 0 0
1480	1444277 632 2378 2378 0.1 4 40 0 0 0 0
1481	1444909 632 2378 2378 0.1 4 40 0 0 0 0
1482	1445541 632 2378 2378 0.1 4 40 0 0 0 0
1483	1446173 632 2378 2378 0.1 4 40 0 0 0 0
1484	1446805 632 2378 2378 0.1 4 40 0 0 0 0
1485	1447437 632 2378 2378 0.1 4 40 0 0 0 0
1486	1448069 632 2378 2378 0.1 4 40 0 0 0 0
1487	1448701 632 2378 2378 0.1 4 40 0 0 0 0
1488	1449333 632 2378 2378 0.1 4 40 0 0 0 0
1489	1449965 632 2378 2378 0.1 4 40 0 0 0 0
1490	1450597 632 2378 2378 0.1 4 40 0 0 0 0
1491	1451229 632 2378 2378 0.1 4 40 0 0 0 0
1492	1451861 632 2378 2378 0.1 4 40 0 0 0 0
1493	1452493 632 2378 2378 0.1 4 40 0 0 0 0
1494	1453125 632 2378 2378 0.1 4 40 0 0 0 0
1495	1453757 632 2378 2378 0.1 4 40 0 0 0 0
1496	1454389 632 2378 2378 0.1 4 40 0 0 0 0
1497	1455021 632 2378 2378 0.1 4 40 0 0 0 0
1498	1455653 632 2378 2378 0.1 4 40 0 0 0 0
1499	1456285 632 2378 2378 0.1 4 40 0 0 0 0
1500	1456917 632 2378 2378 0.1 4 40 0 0 0 0
1501	1457549 632 2378 2378 0.1 4 40 0 0 0 0
1502	1458181 632 2378 2378 0.1 4 40 0 0 0 0
1503	1458813 632 2378 2378 0.1 4 40 0 0 0 0
1504	1459445 632 2378 2378 0.1 4 40 0 0 0 0
1505	1460077 632 2378 2378 0.1 4 40 0 0 0 0
1506	1460709 632 2378 2378 0.1 4 40 0 0 0 0
1507	1461341 632 2378 2378 0.1 4 40 0 0 0 0
1508	1461973 632 2378 2378 0.1 4 40 0 0 0 0
1509	1462605 632 2378 2378 0.1 4 40 0 0 0 0
1510	1463237 632 2378 2378 0.1 4 40 0 0 0 0
1511	1463869 632 2378 2378 0.1 4 40 0 0 0 0
1512	1464501 632 2378 2378 0.1 4 40 0 0 0 0
1513	1465133 632 2378 2378 0.1 4 40 0 0 0 0
1514	1465765 632 2378 2378 0.1 4 40 0 0 0 0
1515	1466397 632 2378 2378 0.1 4 40 0 0 0 0
1516	1467029 632 2378 2378 0.1 4 40 0 0 0 0
1517	1467661 632 2378 2378 0.1 4 40 0 0 0 0
1518	1468293 632 2378 2378 0.1 4 40 0 0 0 0
1519	1468925 632 2378 2378 0.1 4 40 0 0 0 0
1520	1469557 632 2378 2378 0.1 4 40 0 0 0 0
1521	1470189 632 2378 2378 0.1 4 40 0 0 0 0
1522	1470821 632 2378 2378 0.1 4 40 0 0 0 0
1523	1471453 632 2378 2378 0.1 4 40 0 0 0 0
1524	1472085 632 2378 2378 0.1 4 40 0 0 0 0
1525	1472717 632 2378 2378 0.1 4 40 0 0 0 0
1526	1473349 632 2378 2378 0.1 4 40 0 0 0 0
1527	1473981 632 2378 2378 0.1 4 40 0 0 0 0
1528	1474613 632 2378 2378 0.1 4 40 0 0 0 0
1529	1475245 632 2378 2378 0.1 4 40 0 0 0 0
1530	1475877 632 2378 2378 0.1 4 40 0 0 0 0
1531	1476509 632 2378 2378 0.1 4 40 0 0 0 0
1532	1477141 632 2378 2378 0.1 4 40 0 0 0 0
1533	1477773 632 2378 2378 0.1 4 40 0 0 0 0
1534	1478405 632 2378 2378 0.1 4 40 0 0 0 0
1535	1479037 632 2378 2378 0.1 4 40 0 0 0 0
1536	1479669 632 2378 2378 0.1 4 40 0 0 0 0
1537	1480301 632 2378 2378 0.1 4 40 0 0 0 0
1538	1480933 632 2378 2378 0.1 4 40 0 0 0 0
1539	1481565 632 2378 2378 0.1 4 40 0 0 0 0
1540	1482197 632 2378 2378 0.1 4 40 0 0 0 0
1541	1482829 632 2378 2378 0.1 4 40 0 0 0 0
1542	1483461 632 2378 2378 0.1 4 40 0 0 0 0
1543	1484093 632 2378 2378 0.1 4 40 0 0 0 0
1544	1484725 632 2378 2378 0.1 4 40 0 0 0 0
1545	1485357 632 2378 2378 0.1 4 40 0 0 0 0
1546	1485989 632 2378 2378 0.1 4 40 0 0 0 0
1547	1486621 632 2378 2378 0.1 4 40 0 0 0 0
1548	1487253 632 2378 2378 0.1 4 40 0 0 0 0
1549	1487885 632 2378 2378 0.1 4 40 0 0 0 0
1550	1488517 632 2378 2378 0.1 4 40 0 0 0 0
1551	1489149 632 2378 2378 0.1 4 40 0 0 0 0
1552	1489781 632 2378 2378 0.1 4 40 0 0 0 0
1553	1490413 632 2378 2378 0.1 4 40 0 0 0 0
1554	1491045 632 2378 2378 0.1 4 40 0 0 0 0
1555	1491677 632 2378 2378 0.1 4 40 0 0 0 0
1556	1492309 632 2378 2378 0.1 4 40 0 0 0 0
1557	1492941 632 2378 2378 0.1 4 40 0 0 0 0
1558	1493573 632 2378 2378 0.1 4 40 0 0 0 0
1559	1494205 632 2378 2378 0.1 4 40 0 0 0 0
1560	1494837 632 2378 2378 0.1 4 40 0 0 0 0
1561	1495469 632 2378 2378 0.1 4 40 0 0 0 0
1562	1496101 632 2378 2378 0.1 4 40 0 0 0 0
1563	1496733 632 2378 2378 0.1 4 40 0 0 0 0
1564	1497365 632 2378 2378 0.1 4 40 0 0 0 0
1565	1497997 632 2378 2378 0.1 4 40 0 0 0 0
1566	1498629 632 2378 2378 0.1 4 40 0 0 0 0
1567	1499261 632 2378 2378 0.1 4 40 0 0 0 0
1568	1499893 632 2378 2378 0.1 4 40 0 0 0 0
1569	1500525 632 2378 2378 0.1 4 40 0 0 0 0
1570	1501157 632 2378 2378 0.1 4 40 0 0 0 0
1571	1501789 632 2378 2378 0.1 4 40 0 0 0 0
1572	1502421 632 2378 2378 0.1 4 40 0 0 0 0
1573	1503053 632 2378 2378 0.1 4 40 0 0 0 0
1574	1503685 632 2378 2378 0.1 4 40 0 0 0 0
1575	1504317 632 2378 2378 0.1 4 40 0 0 0 0
1576	1504949 632 2378 2378 0.1 4 40 0 0 0 0
1577	1505581 632 2378 2378 0.1 4 40 0 0 0 0
1578	1506213 632 2378 2378 0.1 4 40 0 0 0 0
1579	1506845 632 2378 2378 0.1 4 40 0 0 0 0
1580	1507477 632 2378 2378 0.1 4 40 0 0 0 0
1581	1508109 632 2378 2378 0.1 4 40 0 0 0 0
1582	1508741 632 2378 2378 0.1 4 40 0 0 0 0
1583	1509373 632 2378 2378 0.1 4 40 0 0 0 0
1584	1510005 632 2378 2378 0.1 4 40 0 0 0 0
1585	1510637 632 2378 2378 0.1 4 40 0 0 0 0
1586	1511269 632 2378 2378 0.1 4 40 0 0 0 0
1587	1511901 632 2378 2378 0.1 4 40 0 0 0 0

