version 3
run General-0-20250523-21:28:01-18629
attr configname General
attr datetime 20250523-21:28:01
attr datetimef 20250523-212801
attr experiment General
attr inifile omnetpp.ini
attr iterationvars ""
attr iterationvarsd ""
attr iterationvarsf ""
attr measurement ""
attr network simpleTsn
attr processid 18629
attr repetition 0
attr replication #0
attr resultdir results
attr runnumber 0
attr seedset 0
config image-path ../../../inet/images
config sim-time-limit 4s
config description "General configuration"
config network simpleTsn
config **.displayGateSchedules false
config **.gateScheduleVisualizer.height 14
config **.gateScheduleVisualizer.placementHint "\"bottom\""
config *.scenarioManager.script "xmldoc(\"scenario.xml\")"
config *.histogramContainer.histograms "{Uplink: \"../../../deterministic6g_data/PD-Wireless-5G-1/s1-UL_wall.xml\", Downlink: \"../../../deterministic6g_data/PD-Wireless-5G-1/s10-DL_wall.xml\"}"
config *.detCom1.delayConfig "xmldoc(\"delays1.xml\")"
config *.detCom2.delayConfig "xmldoc(\"delays2.xml\")"
config *.*.eth[*].bitrate 100Mbps
config *.*.*.eth[*].bitrate 100Mbps
config network simpleTsn
config *.device1.numApps 1
config *.device1.app[0].typename SimpleUdpSourceApp
config *.device1.app[0].display-name stream1
config *.device1.app[0].streamId "\"1\""
config *.device1.app[0].max_latency 500
config *.device1.app[0].priority 4
config *.device1.app[0].gamma 0
config *.device1.app[0].max_jitter 10
config *.device1.app[0].io.destAddress "\"device2\""
config *.device1.app[0].io.destPort 1001
config *.device1.app[0].source.packetLength "1000B - 54B"
config *.device1.app[0].source.productionInterval 20ms
config *.device1.app[0].source.initialProductionOffset 1s
config *.device2.numApps 2
config *.device2.app[0].typename SimpleUdpSinkApp
config *.device2.app[0].io.localPort 1001
config *.device2.app[1].typename SimpleUdpSinkApp
config *.device2.app[1].io.localPort 1002
config *.device3.numApps 1
config *.device3.app[0].typename SimpleUdpSourceApp
config *.device3.app[0].display-name stream2
config *.device3.app[0].streamId "\"2\""
config *.device3.app[0].max_latency 300.0
config *.device3.app[0].priority 4
config *.device3.app[0].gamma 0
config *.device3.app[0].max_jitter 10
config *.device3.app[0].io.destAddress "\"device2\""
config *.device3.app[0].io.destPort 1002
config *.device3.app[0].source.packetLength "1000B - 54B"
config *.device3.app[0].source.productionInterval 100ms
config *.device3.app[0].source.initialProductionOffset 30s
config *.device1.app[0].source.streamingEnabled false
config *.device3.app[0].source.streamingEnabled false
config **.streamIdentifier.identifier.mapping "[{stream: \"stream1\", packetFilter: expr(udp.destPort == 1001)}, \n\t\t\t\t\t\t\t\t\t\t  {stream: \"stream2\", packetFilter: expr(udp.destPort == 1002)}]"
config **.streamCoder.*.mapping "[{stream: \"stream1\", pcp: 4, vlan: 1},\n\t\t\t\t\t\t\t{stream: \"stream2\", pcp: 4, vlan: 1}]"
config *.bridge*.bridging.directionReverser.reverser.excludeEncapsulationProtocols "[\"ieee8021qctag\"]"
config *.bridge*.ieee8021q.qTagHeaderChecker.vlanIdFilter [1,5]
config *.bridge*.eth[*].macLayer.queue.*[0].display-name "best effort"
config *.bridge*.eth[*].macLayer.queue.*[1].display-name video
config *.bridge*.eth[*].macLayer.queue.*[2].display-name control
config *.bridge*.eth[*].macLayer.queue.*[3].display-name p3
config *.bridge*.eth[*].macLayer.queue.*[4].display-name p4
config *.bridge*.eth[*].macLayer.queue.*[5].display-name p5
config *.bridge*.eth[*].macLayer.queue.*[6].display-name p6
config *.bridge*.eth[*].macLayer.queue.*[7].display-name p7
config *.macForwardingTableConfigurator.typename ""
config **.bridge1.macTable.forwardingTable "[{address: \"device2\", vlan: 1, interface: \"eth1\"}]"
config **.bridge2.macTable.forwardingTable "[{address: \"device2\", vlan: 1, interface: \"eth0\"}]"
config **.bridge3.macTable.forwardingTable "[{address: \"device2\", vlan: 1, interface: \"eth2\"}]"
config network simpleTsn
config *.tsnController.gateScheduleConfigurator.typename wTSNGateScheduleConfigurator
config *.tsnController.gateScheduleConfigurator.gateCycleDuration 1ms
config *.tsnController.gateScheduleConfigurator.configuration "[\n\t{name:\"stream1\", pcp:4, gateIndex:4, application:\"app[0]\", source:\"device1\", destination:\"device2\", packetLength: 1000B - 54B, packetInterval:20ms,  gamma:1, maxJitter:5ms, maxLatency: 500us, flowStartTime:3s, flowEndTime:5s},\n\t{name:\"stream2\", pcp:4, gateIndex:4, application:\"app[0]\", source:\"device3\", destination:\"device2\", packetLength: 1000B - 54B, packetInterval:100ms, gamma:1, maxJitter:5ms, maxLatency: 300us, flowStartTime:6s, flowEndTime:100s}]"

par simpleTsn.device1.ethg$o[0].channel typename "\"inet.node.ethernet.EthernetLink\""
par simpleTsn.device1.ethg$o[0].channel disabled false
attr mutable ""
par simpleTsn.device1.ethg$o[0].channel delay 5e-08s
attr mutable ""
attr unit s
par simpleTsn.device1.ethg$o[0].channel datarate 0bps
attr mutable ""
attr unit bps
par simpleTsn.device1.ethg$o[0].channel ber 0
attr mutable ""
par simpleTsn.device1.ethg$o[0].channel per 0
attr mutable ""
par simpleTsn.device1.ethg$o[0].channel length 10m
attr unit m
par simpleTsn.detCom1.dsttg$o[0].channel typename "\"inet.node.ethernet.EthernetLink\""
par simpleTsn.detCom1.dsttg$o[0].channel disabled false
attr mutable ""
par simpleTsn.detCom1.dsttg$o[0].channel delay 5e-08s
attr mutable ""
attr unit s
par simpleTsn.detCom1.dsttg$o[0].channel datarate 0bps
attr mutable ""
attr unit bps
par simpleTsn.detCom1.dsttg$o[0].channel ber 0
attr mutable ""
par simpleTsn.detCom1.dsttg$o[0].channel per 0
attr mutable ""
par simpleTsn.detCom1.dsttg$o[0].channel length 10m
attr unit m
par simpleTsn.detCom1.nwttg$o.channel typename "\"inet.node.ethernet.EthernetLink\""
par simpleTsn.detCom1.nwttg$o.channel disabled false
attr mutable ""
par simpleTsn.detCom1.nwttg$o.channel delay 5e-08s
attr mutable ""
attr unit s
par simpleTsn.detCom1.nwttg$o.channel datarate 0bps
attr mutable ""
attr unit bps
par simpleTsn.detCom1.nwttg$o.channel ber 0
attr mutable ""
par simpleTsn.detCom1.nwttg$o.channel per 0
attr mutable ""
par simpleTsn.detCom1.nwttg$o.channel length 10m
attr unit m
par simpleTsn.bridge1.ethg$o[0].channel typename "\"inet.node.ethernet.EthernetLink\""
par simpleTsn.bridge1.ethg$o[0].channel disabled false
attr mutable ""
par simpleTsn.bridge1.ethg$o[0].channel delay 5e-08s
attr mutable ""
attr unit s
par simpleTsn.bridge1.ethg$o[0].channel datarate 0bps
attr mutable ""
attr unit bps
par simpleTsn.bridge1.ethg$o[0].channel ber 0
attr mutable ""
par simpleTsn.bridge1.ethg$o[0].channel per 0
attr mutable ""
par simpleTsn.bridge1.ethg$o[0].channel length 10m
attr unit m
par simpleTsn.device2.ethg$o[0].channel typename "\"inet.node.ethernet.EthernetLink\""
par simpleTsn.device2.ethg$o[0].channel disabled false
attr mutable ""
par simpleTsn.device2.ethg$o[0].channel delay 5e-08s
attr mutable ""
attr unit s
par simpleTsn.device2.ethg$o[0].channel datarate 0bps
attr mutable ""
attr unit bps
par simpleTsn.device2.ethg$o[0].channel ber 0
attr mutable ""
par simpleTsn.device2.ethg$o[0].channel per 0
attr mutable ""
par simpleTsn.device2.ethg$o[0].channel length 10m
attr unit m
par simpleTsn.detCom2.dsttg$o[0].channel typename "\"inet.node.ethernet.EthernetLink\""
par simpleTsn.detCom2.dsttg$o[0].channel disabled false
attr mutable ""
par simpleTsn.detCom2.dsttg$o[0].channel delay 5e-08s
attr mutable ""
attr unit s
par simpleTsn.detCom2.dsttg$o[0].channel datarate 0bps
attr mutable ""
attr unit bps
par simpleTsn.detCom2.dsttg$o[0].channel ber 0
attr mutable ""
par simpleTsn.detCom2.dsttg$o[0].channel per 0
attr mutable ""
par simpleTsn.detCom2.dsttg$o[0].channel length 10m
attr unit m
par simpleTsn.detCom2.nwttg$o.channel typename "\"inet.node.ethernet.EthernetLink\""
par simpleTsn.detCom2.nwttg$o.channel disabled false
attr mutable ""
par simpleTsn.detCom2.nwttg$o.channel delay 5e-08s
attr mutable ""
attr unit s
par simpleTsn.detCom2.nwttg$o.channel datarate 0bps
attr mutable ""
attr unit bps
par simpleTsn.detCom2.nwttg$o.channel ber 0
attr mutable ""
par simpleTsn.detCom2.nwttg$o.channel per 0
attr mutable ""
par simpleTsn.detCom2.nwttg$o.channel length 10m
attr unit m
par simpleTsn.bridge2.ethg$o[0].channel typename "\"inet.node.ethernet.EthernetLink\""
par simpleTsn.bridge2.ethg$o[0].channel disabled false
attr mutable ""
par simpleTsn.bridge2.ethg$o[0].channel delay 5e-08s
attr mutable ""
attr unit s
par simpleTsn.bridge2.ethg$o[0].channel datarate 0bps
attr mutable ""
attr unit bps
par simpleTsn.bridge2.ethg$o[0].channel ber 0
attr mutable ""
par simpleTsn.bridge2.ethg$o[0].channel per 0
attr mutable ""
par simpleTsn.bridge2.ethg$o[0].channel length 10m
attr unit m
par simpleTsn.device3.ethg$o[0].channel typename "\"inet.node.ethernet.EthernetLink\""
par simpleTsn.device3.ethg$o[0].channel disabled false
attr mutable ""
par simpleTsn.device3.ethg$o[0].channel delay 5e-08s
attr mutable ""
attr unit s
par simpleTsn.device3.ethg$o[0].channel datarate 0bps
attr mutable ""
attr unit bps
par simpleTsn.device3.ethg$o[0].channel ber 0
attr mutable ""
par simpleTsn.device3.ethg$o[0].channel per 0
attr mutable ""
par simpleTsn.device3.ethg$o[0].channel length 10m
attr unit m
par simpleTsn.bridge3.ethg$o[0].channel typename "\"inet.node.ethernet.EthernetLink\""
par simpleTsn.bridge3.ethg$o[0].channel disabled false
attr mutable ""
par simpleTsn.bridge3.ethg$o[0].channel delay 5e-08s
attr mutable ""
attr unit s
par simpleTsn.bridge3.ethg$o[0].channel datarate 0bps
attr mutable ""
attr unit bps
par simpleTsn.bridge3.ethg$o[0].channel ber 0
attr mutable ""
par simpleTsn.bridge3.ethg$o[0].channel per 0
attr mutable ""
par simpleTsn.bridge3.ethg$o[0].channel length 10m
attr unit m
par simpleTsn.bridge1.ethg$o[1].channel typename "\"inet.node.ethernet.EthernetLink\""
par simpleTsn.bridge1.ethg$o[1].channel disabled false
attr mutable ""
par simpleTsn.bridge1.ethg$o[1].channel delay 5e-08s
attr mutable ""
attr unit s
par simpleTsn.bridge1.ethg$o[1].channel datarate 0bps
attr mutable ""
attr unit bps
par simpleTsn.bridge1.ethg$o[1].channel ber 0
attr mutable ""
par simpleTsn.bridge1.ethg$o[1].channel per 0
attr mutable ""
par simpleTsn.bridge1.ethg$o[1].channel length 10m
attr unit m
par simpleTsn.bridge2.ethg$o[1].channel typename "\"inet.node.ethernet.EthernetLink\""
par simpleTsn.bridge2.ethg$o[1].channel disabled false
attr mutable ""
par simpleTsn.bridge2.ethg$o[1].channel delay 5e-08s
attr mutable ""
attr unit s
par simpleTsn.bridge2.ethg$o[1].channel datarate 0bps
attr mutable ""
attr unit bps
par simpleTsn.bridge2.ethg$o[1].channel ber 0
attr mutable ""
par simpleTsn.bridge2.ethg$o[1].channel per 0
attr mutable ""
par simpleTsn.bridge2.ethg$o[1].channel length 10m
attr unit m
par simpleTsn.bridge1.ethg$o[2].channel typename "\"inet.node.ethernet.EthernetLink\""
par simpleTsn.bridge1.ethg$o[2].channel disabled false
attr mutable ""
par simpleTsn.bridge1.ethg$o[2].channel delay 5e-08s
attr mutable ""
attr unit s
par simpleTsn.bridge1.ethg$o[2].channel datarate 0bps
attr mutable ""
attr unit bps
par simpleTsn.bridge1.ethg$o[2].channel ber 0
attr mutable ""
par simpleTsn.bridge1.ethg$o[2].channel per 0
attr mutable ""
par simpleTsn.bridge1.ethg$o[2].channel length 10m
attr unit m
par simpleTsn.bridge3.ethg$o[1].channel typename "\"inet.node.ethernet.EthernetLink\""
par simpleTsn.bridge3.ethg$o[1].channel disabled false
attr mutable ""
par simpleTsn.bridge3.ethg$o[1].channel delay 5e-08s
attr mutable ""
attr unit s
par simpleTsn.bridge3.ethg$o[1].channel datarate 0bps
attr mutable ""
attr unit bps
par simpleTsn.bridge3.ethg$o[1].channel ber 0
attr mutable ""
par simpleTsn.bridge3.ethg$o[1].channel per 0
attr mutable ""
par simpleTsn.bridge3.ethg$o[1].channel length 10m
attr unit m
par simpleTsn.bridge3.ethg$o[2].channel typename "\"inet.node.ethernet.EthernetLink\""
par simpleTsn.bridge3.ethg$o[2].channel disabled false
attr mutable ""
par simpleTsn.bridge3.ethg$o[2].channel delay 5e-08s
attr mutable ""
attr unit s
par simpleTsn.bridge3.ethg$o[2].channel datarate 0bps
attr mutable ""
attr unit bps
par simpleTsn.bridge3.ethg$o[2].channel ber 0
attr mutable ""
par simpleTsn.bridge3.ethg$o[2].channel per 0
attr mutable ""
par simpleTsn.bridge3.ethg$o[2].channel length 10m
attr unit m
par simpleTsn.bridge2.ethg$o[2].channel typename "\"inet.node.ethernet.EthernetLink\""
par simpleTsn.bridge2.ethg$o[2].channel disabled false
attr mutable ""
par simpleTsn.bridge2.ethg$o[2].channel delay 5e-08s
attr mutable ""
attr unit s
par simpleTsn.bridge2.ethg$o[2].channel datarate 0bps
attr mutable ""
attr unit bps
par simpleTsn.bridge2.ethg$o[2].channel ber 0
attr mutable ""
par simpleTsn.bridge2.ethg$o[2].channel per 0
attr mutable ""
par simpleTsn.bridge2.ethg$o[2].channel length 10m
attr unit m
par simpleTsn.visualizer.sceneVisualizer typename "\"inet.visualizer.canvas.scene.SceneCanvasVisualizer\""
par simpleTsn.visualizer.sceneVisualizer visualizationTargetModule "\"^.^\""
par simpleTsn.visualizer.sceneVisualizer visualizationSubjectModule "\"^.^\""
par simpleTsn.visualizer.sceneVisualizer tags "\"\""
par simpleTsn.visualizer.sceneVisualizer physicalEnvironmentModule "\"physicalEnvironment\""
par simpleTsn.visualizer.sceneVisualizer networkNodeVisualizerModule "\"^.networkNodeVisualizer\""
par simpleTsn.visualizer.sceneVisualizer axisLength "nan m"
attr mutable ""
attr unit m
par simpleTsn.visualizer.sceneVisualizer animationSpeed 0
par simpleTsn.visualizer.sceneVisualizer sceneMinX "nan m"
attr unit m
par simpleTsn.visualizer.sceneVisualizer sceneMinY "nan m"
attr unit m
par simpleTsn.visualizer.sceneVisualizer sceneMinZ "nan m"
attr unit m
par simpleTsn.visualizer.sceneVisualizer sceneMaxX "nan m"
attr unit m
par simpleTsn.visualizer.sceneVisualizer sceneMaxY "nan m"
attr unit m
par simpleTsn.visualizer.sceneVisualizer sceneMaxZ "nan m"
attr unit m
par simpleTsn.visualizer.sceneVisualizer zIndex 0
par simpleTsn.visualizer.sceneVisualizer viewAngle "\"x right y down z out\""
attr mutable ""
par simpleTsn.visualizer.sceneVisualizer viewScale "\"1 1\""
attr mutable ""
par simpleTsn.visualizer.sceneVisualizer viewTranslation "\"0 0\""
attr mutable ""
par simpleTsn.visualizer.sceneVisualizer descriptionFigure "\"\""
par simpleTsn.visualizer.physicalEnvironmentVisualizer typename "\"inet.visualizer.canvas.environment.PhysicalEnvironmentCanvasVisualizer\""
par simpleTsn.visualizer.physicalEnvironmentVisualizer visualizationTargetModule "\"^.^\""
par simpleTsn.visualizer.physicalEnvironmentVisualizer visualizationSubjectModule "\"^.^\""
par simpleTsn.visualizer.physicalEnvironmentVisualizer tags "\"\""
par simpleTsn.visualizer.physicalEnvironmentVisualizer physicalEnvironmentModule "\"physicalEnvironment\""
par simpleTsn.visualizer.physicalEnvironmentVisualizer displayObjects true
par simpleTsn.visualizer.physicalEnvironmentVisualizer zIndex 0
par simpleTsn.visualizer.networkNodeVisualizer typename "\"inet.visualizer.canvas.scene.NetworkNodeCanvasVisualizer\""
par simpleTsn.visualizer.networkNodeVisualizer visualizationTargetModule "\"^.^\""
par simpleTsn.visualizer.networkNodeVisualizer visualizationSubjectModule "\"^.^\""
par simpleTsn.visualizer.networkNodeVisualizer tags "\"\""
par simpleTsn.visualizer.networkNodeVisualizer nodeFilter "\"*\""
attr mutable ""
par simpleTsn.visualizer.networkNodeVisualizer annotationSpacing 4
par simpleTsn.visualizer.networkNodeVisualizer placementPenalty 10
par simpleTsn.visualizer.networkNodeVisualizer zIndex 0
par simpleTsn.visualizer.networkConnectionVisualizer typename "\"inet.visualizer.canvas.scene.NetworkConnectionCanvasVisualizer\""
par simpleTsn.visualizer.networkConnectionVisualizer visualizationTargetModule "\"^.^\""
par simpleTsn.visualizer.networkConnectionVisualizer visualizationSubjectModule "\"^.^\""
par simpleTsn.visualizer.networkConnectionVisualizer tags "\"\""
par simpleTsn.visualizer.networkConnectionVisualizer displayNetworkConnections true
par simpleTsn.visualizer.networkConnectionVisualizer nodeFilter "\"\""
attr mutable ""
par simpleTsn.visualizer.networkConnectionVisualizer lineColor "\"black\""
par simpleTsn.visualizer.networkConnectionVisualizer lineStyle "\"solid\""
par simpleTsn.visualizer.networkConnectionVisualizer lineWidth 1
par simpleTsn.visualizer.networkConnectionVisualizer zIndex 0
par simpleTsn.visualizer.mobilityVisualizer typename "\"inet.visualizer.canvas.mobility.MobilityCanvasVisualizer\""
par simpleTsn.visualizer.mobilityVisualizer visualizationTargetModule "\"^.^\""
par simpleTsn.visualizer.mobilityVisualizer visualizationSubjectModule "\"^.^\""
par simpleTsn.visualizer.mobilityVisualizer tags "\"\""
par simpleTsn.visualizer.mobilityVisualizer networkNodeVisualizerModule "\"^.networkNodeVisualizer\""
par simpleTsn.visualizer.mobilityVisualizer displayMobility true
par simpleTsn.visualizer.mobilityVisualizer animationSpeed 0
par simpleTsn.visualizer.mobilityVisualizer moduleFilter "\"**.mobility\""
attr mutable ""
par simpleTsn.visualizer.mobilityVisualizer displayPositions false
par simpleTsn.visualizer.mobilityVisualizer positionCircleRadius 4
par simpleTsn.visualizer.mobilityVisualizer positionCircleLineWidth 1
par simpleTsn.visualizer.mobilityVisualizer positionCircleLineColor "\"dark\""
attr enum light,dark
par simpleTsn.visualizer.mobilityVisualizer positionCircleFillColor "\"dark\""
attr enum light,dark
par simpleTsn.visualizer.mobilityVisualizer displayOrientations false
par simpleTsn.visualizer.mobilityVisualizer orientationPieRadius 32
par simpleTsn.visualizer.mobilityVisualizer orientationPieSize 0.2
par simpleTsn.visualizer.mobilityVisualizer orientationPieOpacity 0.25
par simpleTsn.visualizer.mobilityVisualizer orientationLineColor "\"black\""
par simpleTsn.visualizer.mobilityVisualizer orientationLineStyle "\"solid\""
par simpleTsn.visualizer.mobilityVisualizer orientationLineWidth 1
par simpleTsn.visualizer.mobilityVisualizer orientationFillColor "\"blue\""
par simpleTsn.visualizer.mobilityVisualizer displayVelocities false
par simpleTsn.visualizer.mobilityVisualizer velocityArrowScale 1
par simpleTsn.visualizer.mobilityVisualizer velocityLineColor "\"black\""
par simpleTsn.visualizer.mobilityVisualizer velocityLineStyle "\"solid\""
par simpleTsn.visualizer.mobilityVisualizer velocityLineWidth 1
par simpleTsn.visualizer.mobilityVisualizer displayMovementTrails false
par simpleTsn.visualizer.mobilityVisualizer movementTrailLineColor "\"dark\""
attr enum light,dark
par simpleTsn.visualizer.mobilityVisualizer movementTrailLineStyle "\"solid\""
par simpleTsn.visualizer.mobilityVisualizer movementTrailLineWidth 1
par simpleTsn.visualizer.mobilityVisualizer trailLength 100
par simpleTsn.visualizer.mobilityVisualizer zIndex 0
par simpleTsn.visualizer.statisticVisualizer typename "\"inet.visualizer.canvas.common.StatisticCanvasVisualizer\""
par simpleTsn.visualizer.statisticVisualizer visualizationTargetModule "\"^.^\""
par simpleTsn.visualizer.statisticVisualizer visualizationSubjectModule "\"^.^\""
par simpleTsn.visualizer.statisticVisualizer tags "\"\""
par simpleTsn.visualizer.statisticVisualizer networkNodeVisualizerModule "\"^.networkNodeVisualizer\""
par simpleTsn.visualizer.statisticVisualizer displayStatistics true
par simpleTsn.visualizer.statisticVisualizer signalName "\"\""
par simpleTsn.visualizer.statisticVisualizer statisticName "\"\""
par simpleTsn.visualizer.statisticVisualizer statisticUnit "\"\""
par simpleTsn.visualizer.statisticVisualizer statisticExpression "\"\""
par simpleTsn.visualizer.statisticVisualizer sourceFilter "\"**\""
attr mutable ""
par simpleTsn.visualizer.statisticVisualizer format "\"%n: %v %u\""
attr mutable ""
par simpleTsn.visualizer.statisticVisualizer unit "\"\""
par simpleTsn.visualizer.statisticVisualizer font "\"<default>\""
par simpleTsn.visualizer.statisticVisualizer textColor "\"black\""
par simpleTsn.visualizer.statisticVisualizer backgroundColor "\"white\""
par simpleTsn.visualizer.statisticVisualizer opacity 1
par simpleTsn.visualizer.statisticVisualizer placementHint "\"top\""
par simpleTsn.visualizer.statisticVisualizer placementPriority 0
par simpleTsn.visualizer.statisticVisualizer zIndex 10
par simpleTsn.visualizer.statisticVisualizer propertyName "\"\""
par simpleTsn.visualizer.statisticVisualizer propertyIndex "\"\""
par simpleTsn.visualizer.infoVisualizer typename "\"inet.visualizer.canvas.common.InfoCanvasVisualizer\""
par simpleTsn.visualizer.infoVisualizer visualizationTargetModule "\"^.^\""
par simpleTsn.visualizer.infoVisualizer visualizationSubjectModule "\"^.^\""
par simpleTsn.visualizer.infoVisualizer tags "\"\""
par simpleTsn.visualizer.infoVisualizer networkNodeVisualizerModule "\"^.networkNodeVisualizer\""
par simpleTsn.visualizer.infoVisualizer displayInfos true
par simpleTsn.visualizer.infoVisualizer modules "\"\""
attr mutable ""
par simpleTsn.visualizer.infoVisualizer format "\"%t\""
attr mutable ""
par simpleTsn.visualizer.infoVisualizer font "\"<default>\""
par simpleTsn.visualizer.infoVisualizer textColor "\"black\""
par simpleTsn.visualizer.infoVisualizer backgroundColor "\"white\""
par simpleTsn.visualizer.infoVisualizer opacity 1
par simpleTsn.visualizer.infoVisualizer placementHint "\"top\""
par simpleTsn.visualizer.infoVisualizer placementPriority 0
par simpleTsn.visualizer.infoVisualizer zIndex 10
par simpleTsn.visualizer.energyStorageVisualizer typename "\"inet.visualizer.canvas.power.EnergyStorageCanvasVisualizer\""
par simpleTsn.visualizer.energyStorageVisualizer visualizationTargetModule "\"^.^\""
par simpleTsn.visualizer.energyStorageVisualizer visualizationSubjectModule "\"^.^\""
par simpleTsn.visualizer.energyStorageVisualizer tags "\"\""
par simpleTsn.visualizer.energyStorageVisualizer networkNodeVisualizerModule "\"^.networkNodeVisualizer\""
par simpleTsn.visualizer.energyStorageVisualizer displayEnergyStorages false
par simpleTsn.visualizer.energyStorageVisualizer energyStorageFilter "\"**\""
par simpleTsn.visualizer.energyStorageVisualizer color "\"green\""
par simpleTsn.visualizer.energyStorageVisualizer width 8
par simpleTsn.visualizer.energyStorageVisualizer height 24
par simpleTsn.visualizer.energyStorageVisualizer spacing 2
par simpleTsn.visualizer.energyStorageVisualizer placementHint "\"right\""
par simpleTsn.visualizer.energyStorageVisualizer placementPriority 0
par simpleTsn.visualizer.energyStorageVisualizer zIndex 10
par simpleTsn.visualizer.mediumVisualizer typename "\"inet.visualizer.canvas.physicallayer.MediumCanvasVisualizer\""
par simpleTsn.visualizer.mediumVisualizer visualizationTargetModule "\"^.^\""
par simpleTsn.visualizer.mediumVisualizer visualizationSubjectModule "\"^.^\""
par simpleTsn.visualizer.mediumVisualizer tags "\"\""
par simpleTsn.visualizer.mediumVisualizer mediumModule "\"radioMedium\""
par simpleTsn.visualizer.mediumVisualizer networkNodeVisualizerModule "\"^.networkNodeVisualizer\""
par simpleTsn.visualizer.mediumVisualizer nodeFilter "\"*\""
attr mutable ""
par simpleTsn.visualizer.mediumVisualizer interfaceFilter "\"*\""
attr mutable ""
par simpleTsn.visualizer.mediumVisualizer packetFilter "(omnetpp::cValueHolder)holder: \"*\""
attr mutable ""
par simpleTsn.visualizer.mediumVisualizer displaySignals false
par simpleTsn.visualizer.mediumVisualizer signalColor "\"dark\""
attr enum light,dark
par simpleTsn.visualizer.mediumVisualizer signalPropagationAnimationSpeed "nan "
attr mutable ""
par simpleTsn.visualizer.mediumVisualizer signalPropagationAnimationTime 1s
attr unit s
par simpleTsn.visualizer.mediumVisualizer signalPropagationAdditionalTime 0s
attr unit s
par simpleTsn.visualizer.mediumVisualizer signalTransmissionAnimationSpeed "nan "
attr mutable ""
par simpleTsn.visualizer.mediumVisualizer signalTransmissionAnimationTime 1s
attr unit s
par simpleTsn.visualizer.mediumVisualizer signalAnimationSpeedChangeTimeMode "\"realTime\""
attr enum realTime,animationTime,simulationTime
par simpleTsn.visualizer.mediumVisualizer signalAnimationSpeedChangeTime 1s
attr unit s
par simpleTsn.visualizer.mediumVisualizer displaySignalDepartures false
par simpleTsn.visualizer.mediumVisualizer signalDepartureImage "\"misc/signal_departure.png\""
par simpleTsn.visualizer.mediumVisualizer signalDeparturePlacementHint "\"topCenter\""
par simpleTsn.visualizer.mediumVisualizer signalDeparturePlacementPriority 1
par simpleTsn.visualizer.mediumVisualizer displaySignalArrivals false
par simpleTsn.visualizer.mediumVisualizer signalArrivalImage "\"misc/signal_arrival.png\""
par simpleTsn.visualizer.mediumVisualizer signalArrivalPlacementHint "\"topCenter\""
par simpleTsn.visualizer.mediumVisualizer signalArrivalPlacementPriority -1
par simpleTsn.visualizer.mediumVisualizer displayCommunicationRanges false
par simpleTsn.visualizer.mediumVisualizer communicationRangeLineColor "\"blue\""
par simpleTsn.visualizer.mediumVisualizer communicationRangeLineStyle "\"solid\""
par simpleTsn.visualizer.mediumVisualizer communicationRangeLineWidth 1
par simpleTsn.visualizer.mediumVisualizer displayInterferenceRanges false
par simpleTsn.visualizer.mediumVisualizer interferenceRangeLineColor "\"gray\""
par simpleTsn.visualizer.mediumVisualizer interferenceRangeLineStyle "\"solid\""
par simpleTsn.visualizer.mediumVisualizer interferenceRangeLineWidth 1
par simpleTsn.visualizer.mediumVisualizer autoPowerAxis true
par simpleTsn.visualizer.mediumVisualizer signalMinPower "inf dBmW"
attr unit dBmW
par simpleTsn.visualizer.mediumVisualizer signalMaxPower 0dBmW
attr unit dBmW
par simpleTsn.visualizer.mediumVisualizer signalMinPowerDensity "inf dBmWpMHz"
attr unit dBmWpMHz
par simpleTsn.visualizer.mediumVisualizer signalMaxPowerDensity "-inf dBmWpMHz"
attr unit dBmWpMHz
par simpleTsn.visualizer.mediumVisualizer autoTimeAxis true
par simpleTsn.visualizer.mediumVisualizer signalMinTime 0s
attr unit s
par simpleTsn.visualizer.mediumVisualizer signalMaxTime 0s
attr unit s
par simpleTsn.visualizer.mediumVisualizer autoFrequencyAxis true
par simpleTsn.visualizer.mediumVisualizer signalMinFrequency "inf Hz"
attr unit Hz
par simpleTsn.visualizer.mediumVisualizer signalMaxFrequency "-inf Hz"
attr unit Hz
par simpleTsn.visualizer.mediumVisualizer displayMainPowerDensityMap false
par simpleTsn.visualizer.mediumVisualizer mainPowerDensityMapPixmapDensity 1
par simpleTsn.visualizer.mediumVisualizer mainPowerDensityMapMinX 0
par simpleTsn.visualizer.mediumVisualizer mainPowerDensityMapMaxX "nan "
par simpleTsn.visualizer.mediumVisualizer mainPowerDensityMapMinY 0
par simpleTsn.visualizer.mediumVisualizer mainPowerDensityMapMaxY "nan "
par simpleTsn.visualizer.mediumVisualizer mainPowerDensityMapZ 0
par simpleTsn.visualizer.mediumVisualizer mainPowerDensityMapFigureXTickCount 3
par simpleTsn.visualizer.mediumVisualizer mainPowerDensityMapFigureYTickCount 3
par simpleTsn.visualizer.mediumVisualizer displayPowerDensityMaps false
par simpleTsn.visualizer.mediumVisualizer powerDensityMapMode "\"auto\""
attr enum total,signal,auto
par simpleTsn.visualizer.mediumVisualizer powerDensityMapPixelMode "\"mean\""
attr enum sample,partition,mean
par simpleTsn.visualizer.mediumVisualizer powerDensityMapApproximationSize 10
par simpleTsn.visualizer.mediumVisualizer powerDensityMapCenterFrequency "nan Hz"
attr mutable ""
attr unit Hz
par simpleTsn.visualizer.mediumVisualizer powerDensityMapBandwidth 0Hz
attr mutable ""
attr unit Hz
par simpleTsn.visualizer.mediumVisualizer powerDensityMapFigureWidth 200
par simpleTsn.visualizer.mediumVisualizer powerDensityMapFigureHeight 120
par simpleTsn.visualizer.mediumVisualizer powerDensityMapPixmapWidth 200
par simpleTsn.visualizer.mediumVisualizer powerDensityMapPixmapHeight 120
par simpleTsn.visualizer.mediumVisualizer powerDensityMapZ 0
par simpleTsn.visualizer.mediumVisualizer powerDensityMapFigureXTickCount 3
par simpleTsn.visualizer.mediumVisualizer powerDensityMapFigureYTickCount 3
par simpleTsn.visualizer.mediumVisualizer displaySpectrums false
par simpleTsn.visualizer.mediumVisualizer spectrumMode "\"auto\""
attr enum total,signal,auto
par simpleTsn.visualizer.mediumVisualizer spectrumFigureWidth 200
par simpleTsn.visualizer.mediumVisualizer spectrumFigureHeight 120
par simpleTsn.visualizer.mediumVisualizer spectrumFigureXTickCount 3
par simpleTsn.visualizer.mediumVisualizer spectrumFigureYTickCount 5
par simpleTsn.visualizer.mediumVisualizer spectrumFigureInterpolationSize 5
par simpleTsn.visualizer.mediumVisualizer spectrumPlacementHint "\"bottomCenter\""
par simpleTsn.visualizer.mediumVisualizer spectrumPlacementPriority -1
par simpleTsn.visualizer.mediumVisualizer displaySpectrograms false
par simpleTsn.visualizer.mediumVisualizer spectrogramMode "\"auto\""
attr enum total,signal,auto
par simpleTsn.visualizer.mediumVisualizer spectrogramPixelMode "\"mean\""
attr enum sample,partition,mean
par simpleTsn.visualizer.mediumVisualizer spectrogramFigureWidth 200
par simpleTsn.visualizer.mediumVisualizer spectrogramFigureHeight 120
par simpleTsn.visualizer.mediumVisualizer spectrogramPixmapWidth 200
par simpleTsn.visualizer.mediumVisualizer spectrogramPixmapHeight 120
par simpleTsn.visualizer.mediumVisualizer spectrogramFigureXTickCount 3
par simpleTsn.visualizer.mediumVisualizer spectrogramFigureYTickCount 5
par simpleTsn.visualizer.mediumVisualizer spectrogramPlacementHint "\"bottomCenter\""
par simpleTsn.visualizer.mediumVisualizer spectrogramPlacementPriority -1
par simpleTsn.visualizer.mediumVisualizer zIndex 0
par simpleTsn.visualizer.mediumVisualizer signalShape "\"ring\""
attr enum ring,sphere
par simpleTsn.visualizer.mediumVisualizer signalOpacity 0.5
par simpleTsn.visualizer.mediumVisualizer signalRingCount 20
par simpleTsn.visualizer.mediumVisualizer signalRingSize 50m
attr unit m
par simpleTsn.visualizer.mediumVisualizer signalFadingDistance 50m
attr unit m
par simpleTsn.visualizer.mediumVisualizer signalFadingFactor 1.2
par simpleTsn.visualizer.mediumVisualizer signalWaveCount 20
par simpleTsn.visualizer.mediumVisualizer signalWaveLength 50m
attr unit m
par simpleTsn.visualizer.mediumVisualizer signalWaveWidth 10m
attr unit m
par simpleTsn.visualizer.mediumVisualizer signalWaveFadingAnimationSpeedFactor 1
par simpleTsn.visualizer.mediumVisualizer displayCommunicationHeat false
par simpleTsn.visualizer.obstacleLossVisualizer typename "\"inet.visualizer.canvas.physicallayer.TracingObstacleLossCanvasVisualizer\""
par simpleTsn.visualizer.obstacleLossVisualizer visualizationTargetModule "\"^.^\""
par simpleTsn.visualizer.obstacleLossVisualizer visualizationSubjectModule "\"^.^\""
par simpleTsn.visualizer.obstacleLossVisualizer tags "\"\""
par simpleTsn.visualizer.obstacleLossVisualizer displayIntersections false
par simpleTsn.visualizer.obstacleLossVisualizer intersectionLineColor "\"red\""
par simpleTsn.visualizer.obstacleLossVisualizer intersectionLineStyle "\"solid\""
par simpleTsn.visualizer.obstacleLossVisualizer intersectionLineWidth 1
par simpleTsn.visualizer.obstacleLossVisualizer displayFaceNormalVectors false
par simpleTsn.visualizer.obstacleLossVisualizer faceNormalLineColor "\"grey\""
par simpleTsn.visualizer.obstacleLossVisualizer faceNormalLineStyle "\"solid\""
par simpleTsn.visualizer.obstacleLossVisualizer faceNormalLineWidth 1
par simpleTsn.visualizer.obstacleLossVisualizer fadeOutMode "\"realTime\""
attr enum realTime,animationTime,simulationTime
par simpleTsn.visualizer.obstacleLossVisualizer fadeOutTime 1s
attr unit s
par simpleTsn.visualizer.obstacleLossVisualizer fadeOutAnimationSpeed 0
par simpleTsn.visualizer.obstacleLossVisualizer zIndex 0
par simpleTsn.visualizer.packetDropVisualizer typename "\"inet.visualizer.canvas.common.PacketDropCanvasVisualizer\""
par simpleTsn.visualizer.packetDropVisualizer visualizationTargetModule "\"^.^\""
par simpleTsn.visualizer.packetDropVisualizer visualizationSubjectModule "\"^.^\""
par simpleTsn.visualizer.packetDropVisualizer tags "\"\""
par simpleTsn.visualizer.packetDropVisualizer displayPacketDrops false
par simpleTsn.visualizer.packetDropVisualizer nodeFilter "\"*\""
attr mutable ""
par simpleTsn.visualizer.packetDropVisualizer interfaceFilter "\"*\""
attr mutable ""
par simpleTsn.visualizer.packetDropVisualizer packetFilter "(omnetpp::cValueHolder)holder: \"*\""
attr mutable ""
par simpleTsn.visualizer.packetDropVisualizer detailsFilter "\"*\""
attr mutable ""
par simpleTsn.visualizer.packetDropVisualizer icon "\"msg/packet_s\""
par simpleTsn.visualizer.packetDropVisualizer iconTintAmount 1
par simpleTsn.visualizer.packetDropVisualizer iconTintColor "\"dark\""
par simpleTsn.visualizer.packetDropVisualizer labelFormat "\"%n\""
attr mutable ""
par simpleTsn.visualizer.packetDropVisualizer labelFont "\"<default>\""
par simpleTsn.visualizer.packetDropVisualizer labelColor "\"black\""
par simpleTsn.visualizer.packetDropVisualizer fadeOutMode "\"realTime\""
attr enum realTime,animationTime,simulationTime
par simpleTsn.visualizer.packetDropVisualizer fadeOutTime 1s
attr unit s
par simpleTsn.visualizer.packetDropVisualizer fadeOutAnimationSpeed 0
par simpleTsn.visualizer.packetDropVisualizer zIndex 10
par simpleTsn.visualizer.packetDropVisualizer dx 32
par simpleTsn.visualizer.packetDropVisualizer dy 64
par simpleTsn.visualizer.packetFlowVisualizer typename "\"inet.visualizer.canvas.flow.PacketFlowCanvasVisualizer\""
par simpleTsn.visualizer.packetFlowVisualizer visualizationTargetModule "\"^.^\""
par simpleTsn.visualizer.packetFlowVisualizer visualizationSubjectModule "\"^.^\""
par simpleTsn.visualizer.packetFlowVisualizer tags "\"\""
par simpleTsn.visualizer.packetFlowVisualizer displayRoutes false
par simpleTsn.visualizer.packetFlowVisualizer startPathSignal "\"packetFlowStarted\""
par simpleTsn.visualizer.packetFlowVisualizer extendPathSignal "\"packetReceivedFromLower\""
par simpleTsn.visualizer.packetFlowVisualizer endPathSignal "\"packetFlowEnded\""
par simpleTsn.visualizer.packetFlowVisualizer nodeFilter "\"*\""
attr mutable ""
par simpleTsn.visualizer.packetFlowVisualizer packetFilter "(omnetpp::cValueHolder)holder: \"*\""
attr mutable ""
par simpleTsn.visualizer.packetFlowVisualizer lineColor "\"dark\""
attr enum light,dark
par simpleTsn.visualizer.packetFlowVisualizer lineStyle "\"dashed\""
par simpleTsn.visualizer.packetFlowVisualizer lineWidth 3
par simpleTsn.visualizer.packetFlowVisualizer lineSmooth false
par simpleTsn.visualizer.packetFlowVisualizer lineShift 16
par simpleTsn.visualizer.packetFlowVisualizer lineShiftMode "\"normal\""
par simpleTsn.visualizer.packetFlowVisualizer lineContactSpacing 3
par simpleTsn.visualizer.packetFlowVisualizer lineContactMode "\"rectangular\""
attr enum circular,rectangular
par simpleTsn.visualizer.packetFlowVisualizer labelFormat "\"%L %p pk (%l)\""
par simpleTsn.visualizer.packetFlowVisualizer labelFont "\"<default>, 8px\""
par simpleTsn.visualizer.packetFlowVisualizer labelColor "\"\""
par simpleTsn.visualizer.packetFlowVisualizer fadeOutMode "\"realTime\""
attr enum realTime,animationTime,simulationTime
par simpleTsn.visualizer.packetFlowVisualizer fadeOutTime 0s
attr unit s
par simpleTsn.visualizer.packetFlowVisualizer fadeOutAnimationSpeed 0
par simpleTsn.visualizer.packetFlowVisualizer zIndex 4
par simpleTsn.visualizer.queueVisualizer typename "\"inet.visualizer.canvas.common.QueueCanvasVisualizer\""
par simpleTsn.visualizer.queueVisualizer visualizationTargetModule "\"^.^\""
par simpleTsn.visualizer.queueVisualizer visualizationSubjectModule "\"^.^\""
par simpleTsn.visualizer.queueVisualizer tags "\"\""
par simpleTsn.visualizer.queueVisualizer networkNodeVisualizerModule "\"^.networkNodeVisualizer\""
par simpleTsn.visualizer.queueVisualizer displayQueues false
par simpleTsn.visualizer.queueVisualizer queueFilter "\"**\""
par simpleTsn.visualizer.queueVisualizer color "\"blue\""
par simpleTsn.visualizer.queueVisualizer width 8
par simpleTsn.visualizer.queueVisualizer height 24
par simpleTsn.visualizer.queueVisualizer spacing 2
par simpleTsn.visualizer.queueVisualizer placementHint "\"right\""
par simpleTsn.visualizer.queueVisualizer placementPriority 0
par simpleTsn.visualizer.queueVisualizer zIndex 10
par simpleTsn.visualizer.gateScheduleVisualizer typename "\"inet.visualizer.canvas.common.GateScheduleCanvasVisualizer\""
par simpleTsn.visualizer.gateScheduleVisualizer visualizationTargetModule "\"^.^\""
par simpleTsn.visualizer.gateScheduleVisualizer visualizationSubjectModule "\"^.^\""
par simpleTsn.visualizer.gateScheduleVisualizer tags "\"\""
par simpleTsn.visualizer.gateScheduleVisualizer networkNodeVisualizerModule "\"^.networkNodeVisualizer\""
par simpleTsn.visualizer.gateScheduleVisualizer displayGateSchedules false
par simpleTsn.visualizer.gateScheduleVisualizer labelFormat "\"%i %D\""
par simpleTsn.visualizer.gateScheduleVisualizer gateFilter "\"**\""
par simpleTsn.visualizer.gateScheduleVisualizer width 100
par simpleTsn.visualizer.gateScheduleVisualizer height 14
par simpleTsn.visualizer.gateScheduleVisualizer spacing 2
par simpleTsn.visualizer.gateScheduleVisualizer placementHint "\"bottom\""
par simpleTsn.visualizer.gateScheduleVisualizer placementPriority 0
par simpleTsn.visualizer.gateScheduleVisualizer displayDuration 0s
attr mutable ""
attr unit s
par simpleTsn.visualizer.gateScheduleVisualizer currentTimePosition 50
par simpleTsn.visualizer.gateScheduleVisualizer zIndex 10
par simpleTsn.visualizer.radioVisualizer typename "\"inet.visualizer.canvas.physicallayer.RadioCanvasVisualizer\""
par simpleTsn.visualizer.radioVisualizer visualizationTargetModule "\"^.^\""
par simpleTsn.visualizer.radioVisualizer visualizationSubjectModule "\"^.^\""
par simpleTsn.visualizer.radioVisualizer tags "\"\""
par simpleTsn.visualizer.radioVisualizer networkNodeVisualizerModule "\"^.networkNodeVisualizer\""
par simpleTsn.visualizer.radioVisualizer displayRadios false
par simpleTsn.visualizer.radioVisualizer displayRadioMode true
par simpleTsn.visualizer.radioVisualizer displayReceptionState true
par simpleTsn.visualizer.radioVisualizer displayTransmissionState true
par simpleTsn.visualizer.radioVisualizer displayAntennaLobes false
par simpleTsn.visualizer.radioVisualizer radioFilter "\"**\""
attr mutable ""
par simpleTsn.visualizer.radioVisualizer radioModeImages "\"block/process_vs block/timer_vs block/wrx_vs block/wtx_vs block/wrxtx_vs block/cogwheel_vs\""
par simpleTsn.visualizer.radioVisualizer receptionStateImages "\"- - misc/receiving misc/receiving\""
par simpleTsn.visualizer.radioVisualizer transmissionStateImages "\"- - misc/transmitting\""
par simpleTsn.visualizer.radioVisualizer width 16
par simpleTsn.visualizer.radioVisualizer height 16
par simpleTsn.visualizer.radioVisualizer placementHint "\"bottomRight\""
par simpleTsn.visualizer.radioVisualizer placementPriority 0
par simpleTsn.visualizer.radioVisualizer antennaLobeNormalize false
par simpleTsn.visualizer.radioVisualizer antennaLobeRelativeLabels false
par simpleTsn.visualizer.radioVisualizer antennaLobePlaneGlobal true
par simpleTsn.visualizer.radioVisualizer antennaLobePlane "\"view\""
attr enum view,xy,xz,yz
par simpleTsn.visualizer.radioVisualizer antennaLobeMode "\"logarithmic\""
attr enum logarithmic,linear
par simpleTsn.visualizer.radioVisualizer antennaLobeLogarithmicBase 10
par simpleTsn.visualizer.radioVisualizer antennaLobeLogarithmicScale 100
par simpleTsn.visualizer.radioVisualizer antennaLobeRadius 100
par simpleTsn.visualizer.radioVisualizer antennaLobeStep 10deg
attr unit deg
par simpleTsn.visualizer.radioVisualizer antennaLobeOpacity 0.25
par simpleTsn.visualizer.radioVisualizer antennaLobeLineSmooth true
par simpleTsn.visualizer.radioVisualizer antennaLobeLineColor "\"black\""
par simpleTsn.visualizer.radioVisualizer antennaLobeLineStyle "\"solid\""
par simpleTsn.visualizer.radioVisualizer antennaLobeLineWidth 1
par simpleTsn.visualizer.radioVisualizer antennaLobeFillColor "\"white\""
par simpleTsn.visualizer.radioVisualizer zIndex 10
par simpleTsn.visualizer.physicalLinkVisualizer typename "\"inet.visualizer.canvas.physicallayer.PhysicalLinkCanvasVisualizer\""
par simpleTsn.visualizer.physicalLinkVisualizer visualizationTargetModule "\"^.^\""
par simpleTsn.visualizer.physicalLinkVisualizer visualizationSubjectModule "\"^.^\""
par simpleTsn.visualizer.physicalLinkVisualizer tags "\"\""
par simpleTsn.visualizer.physicalLinkVisualizer displayLinks false
par simpleTsn.visualizer.physicalLinkVisualizer activityLevel "\"service\""
attr enum service,peer,protocol
par simpleTsn.visualizer.physicalLinkVisualizer nodeFilter "\"*\""
attr mutable ""
par simpleTsn.visualizer.physicalLinkVisualizer interfaceFilter "\"*\""
attr mutable ""
par simpleTsn.visualizer.physicalLinkVisualizer packetFilter "(omnetpp::cValueHolder)holder: \"*\""
attr mutable ""
par simpleTsn.visualizer.physicalLinkVisualizer lineColor "\"olive\""
par simpleTsn.visualizer.physicalLinkVisualizer lineStyle "\"dotted\""
par simpleTsn.visualizer.physicalLinkVisualizer lineWidth 3
par simpleTsn.visualizer.physicalLinkVisualizer lineShift 16
par simpleTsn.visualizer.physicalLinkVisualizer lineShiftMode "\"normal\""
par simpleTsn.visualizer.physicalLinkVisualizer lineContactSpacing 3
par simpleTsn.visualizer.physicalLinkVisualizer lineContactMode "\"rectangular\""
attr enum circular,rectangular
par simpleTsn.visualizer.physicalLinkVisualizer labelFormat "\"%n\""
par simpleTsn.visualizer.physicalLinkVisualizer labelFont "\"<default>, 8px\""
par simpleTsn.visualizer.physicalLinkVisualizer labelColor "\"olive\""
par simpleTsn.visualizer.physicalLinkVisualizer fadeOutMode "\"realTime\""
attr enum realTime,animationTime,simulationTime
par simpleTsn.visualizer.physicalLinkVisualizer fadeOutTime 1s
attr unit s
par simpleTsn.visualizer.physicalLinkVisualizer fadeOutAnimationSpeed 0
par simpleTsn.visualizer.physicalLinkVisualizer holdAnimationTime 0s
attr unit s
par simpleTsn.visualizer.physicalLinkVisualizer zIndex 1
par simpleTsn.visualizer.interfaceTableVisualizer typename "\"inet.visualizer.canvas.linklayer.InterfaceTableCanvasVisualizer\""
par simpleTsn.visualizer.interfaceTableVisualizer visualizationTargetModule "\"^.^\""
par simpleTsn.visualizer.interfaceTableVisualizer visualizationSubjectModule "\"^.^\""
par simpleTsn.visualizer.interfaceTableVisualizer tags "\"\""
par simpleTsn.visualizer.interfaceTableVisualizer networkNodeVisualizerModule "\"^.networkNodeVisualizer\""
par simpleTsn.visualizer.interfaceTableVisualizer displayInterfaceTables false
par simpleTsn.visualizer.interfaceTableVisualizer displayWiredInterfacesAtConnections true
par simpleTsn.visualizer.interfaceTableVisualizer displayBackground false
par simpleTsn.visualizer.interfaceTableVisualizer nodeFilter "\"*\""
attr mutable ""
par simpleTsn.visualizer.interfaceTableVisualizer interfaceFilter "\"not(lo*)\""
attr mutable ""
par simpleTsn.visualizer.interfaceTableVisualizer format "\"%N %\\\\%a%/%l\""
attr mutable ""
par simpleTsn.visualizer.interfaceTableVisualizer placementHint "\"top\""
par simpleTsn.visualizer.interfaceTableVisualizer placementPriority 0
par simpleTsn.visualizer.interfaceTableVisualizer font "\"<default>\""
par simpleTsn.visualizer.interfaceTableVisualizer textColor "\"#005030\""
par simpleTsn.visualizer.interfaceTableVisualizer backgroundColor "\"white\""
par simpleTsn.visualizer.interfaceTableVisualizer opacity 1
par simpleTsn.visualizer.interfaceTableVisualizer zIndex 10
par simpleTsn.visualizer.dataLinkVisualizer typename "\"inet.visualizer.canvas.linklayer.DataLinkCanvasVisualizer\""
par simpleTsn.visualizer.dataLinkVisualizer visualizationTargetModule "\"^.^\""
par simpleTsn.visualizer.dataLinkVisualizer visualizationSubjectModule "\"^.^\""
par simpleTsn.visualizer.dataLinkVisualizer tags "\"\""
par simpleTsn.visualizer.dataLinkVisualizer displayLinks false
par simpleTsn.visualizer.dataLinkVisualizer activityLevel "\"service\""
attr enum service,peer,protocol
par simpleTsn.visualizer.dataLinkVisualizer nodeFilter "\"*\""
attr mutable ""
par simpleTsn.visualizer.dataLinkVisualizer interfaceFilter "\"*\""
attr mutable ""
par simpleTsn.visualizer.dataLinkVisualizer packetFilter "(omnetpp::cValueHolder)holder: \"*\""
attr mutable ""
par simpleTsn.visualizer.dataLinkVisualizer lineColor "\"darkcyan\""
par simpleTsn.visualizer.dataLinkVisualizer lineStyle "\"solid\""
par simpleTsn.visualizer.dataLinkVisualizer lineWidth 3
par simpleTsn.visualizer.dataLinkVisualizer lineShift 16
par simpleTsn.visualizer.dataLinkVisualizer lineShiftMode "\"normal\""
par simpleTsn.visualizer.dataLinkVisualizer lineContactSpacing 3
par simpleTsn.visualizer.dataLinkVisualizer lineContactMode "\"rectangular\""
attr enum circular,rectangular
par simpleTsn.visualizer.dataLinkVisualizer labelFormat "\"%n\""
par simpleTsn.visualizer.dataLinkVisualizer labelFont "\"<default>, 8px\""
par simpleTsn.visualizer.dataLinkVisualizer labelColor "\"darkcyan\""
par simpleTsn.visualizer.dataLinkVisualizer fadeOutMode "\"realTime\""
attr enum realTime,animationTime,simulationTime
par simpleTsn.visualizer.dataLinkVisualizer fadeOutTime 1s
attr unit s
par simpleTsn.visualizer.dataLinkVisualizer fadeOutAnimationSpeed 0
par simpleTsn.visualizer.dataLinkVisualizer holdAnimationTime 0s
attr unit s
par simpleTsn.visualizer.dataLinkVisualizer zIndex 2
par simpleTsn.visualizer.linkBreakVisualizer typename "\"inet.visualizer.canvas.linklayer.LinkBreakCanvasVisualizer\""
par simpleTsn.visualizer.linkBreakVisualizer visualizationTargetModule "\"^.^\""
par simpleTsn.visualizer.linkBreakVisualizer visualizationSubjectModule "\"^.^\""
par simpleTsn.visualizer.linkBreakVisualizer tags "\"\""
par simpleTsn.visualizer.linkBreakVisualizer displayLinkBreaks false
par simpleTsn.visualizer.linkBreakVisualizer nodeFilter "\"*\""
attr mutable ""
par simpleTsn.visualizer.linkBreakVisualizer interfaceFilter "\"*\""
attr mutable ""
par simpleTsn.visualizer.linkBreakVisualizer packetFilter "(omnetpp::cValueHolder)holder: \"*\""
attr mutable ""
par simpleTsn.visualizer.linkBreakVisualizer icon "\"status/stop\""
par simpleTsn.visualizer.linkBreakVisualizer iconTintAmount 0
par simpleTsn.visualizer.linkBreakVisualizer iconTintColor "\"\""
par simpleTsn.visualizer.linkBreakVisualizer fadeOutMode "\"realTime\""
attr enum realTime,animationTime,simulationTime
par simpleTsn.visualizer.linkBreakVisualizer fadeOutTime 1s
attr unit s
par simpleTsn.visualizer.linkBreakVisualizer fadeOutAnimationSpeed 0
par simpleTsn.visualizer.linkBreakVisualizer zIndex 2
par simpleTsn.visualizer.ieee80211Visualizer typename "\"inet.visualizer.canvas.linklayer.Ieee80211CanvasVisualizer\""
par simpleTsn.visualizer.ieee80211Visualizer visualizationTargetModule "\"^.^\""
par simpleTsn.visualizer.ieee80211Visualizer visualizationSubjectModule "\"^.^\""
par simpleTsn.visualizer.ieee80211Visualizer tags "\"\""
par simpleTsn.visualizer.ieee80211Visualizer networkNodeVisualizerModule "\"^.networkNodeVisualizer\""
par simpleTsn.visualizer.ieee80211Visualizer displayAssociations false
par simpleTsn.visualizer.ieee80211Visualizer nodeFilter "\"*\""
attr mutable ""
par simpleTsn.visualizer.ieee80211Visualizer interfaceFilter "\"*\""
attr mutable ""
par simpleTsn.visualizer.ieee80211Visualizer minPower -85dBm
attr unit dBm
par simpleTsn.visualizer.ieee80211Visualizer maxPower -50dBm
attr unit dBm
par simpleTsn.visualizer.ieee80211Visualizer icons "\"misc/signal_power_0 misc/signal_power_1 misc/signal_power_2 misc/signal_power_3\""
par simpleTsn.visualizer.ieee80211Visualizer iconColor "\"dark\""
attr enum light,dark
par simpleTsn.visualizer.ieee80211Visualizer labelFont "\"<default>\""
par simpleTsn.visualizer.ieee80211Visualizer labelColor "\"black\""
par simpleTsn.visualizer.ieee80211Visualizer placementHint "\"top\""
par simpleTsn.visualizer.ieee80211Visualizer placementPriority 0
par simpleTsn.visualizer.ieee80211Visualizer zIndex 2
par simpleTsn.visualizer.networkRouteVisualizer typename "\"inet.visualizer.canvas.networklayer.NetworkRouteCanvasVisualizer\""
par simpleTsn.visualizer.networkRouteVisualizer visualizationTargetModule "\"^.^\""
par simpleTsn.visualizer.networkRouteVisualizer visualizationSubjectModule "\"^.^\""
par simpleTsn.visualizer.networkRouteVisualizer tags "\"\""
par simpleTsn.visualizer.networkRouteVisualizer displayRoutes false
par simpleTsn.visualizer.networkRouteVisualizer startPathSignal "\"packetReceivedFromUpper\""
par simpleTsn.visualizer.networkRouteVisualizer extendPathSignal "\"packetReceivedFromLower\""
par simpleTsn.visualizer.networkRouteVisualizer endPathSignal "\"packetSentToUpper\""
par simpleTsn.visualizer.networkRouteVisualizer nodeFilter "\"*\""
attr mutable ""
par simpleTsn.visualizer.networkRouteVisualizer packetFilter "(omnetpp::cValueHolder)holder: \"*\""
attr mutable ""
par simpleTsn.visualizer.networkRouteVisualizer lineColor "\"dark\""
attr enum light,dark
par simpleTsn.visualizer.networkRouteVisualizer lineStyle "\"solid\""
par simpleTsn.visualizer.networkRouteVisualizer lineWidth 3
par simpleTsn.visualizer.networkRouteVisualizer lineSmooth false
par simpleTsn.visualizer.networkRouteVisualizer lineShift 16
par simpleTsn.visualizer.networkRouteVisualizer lineShiftMode "\"normal\""
par simpleTsn.visualizer.networkRouteVisualizer lineContactSpacing 3
par simpleTsn.visualizer.networkRouteVisualizer lineContactMode "\"rectangular\""
attr enum circular,rectangular
par simpleTsn.visualizer.networkRouteVisualizer labelFormat "\"%n\""
par simpleTsn.visualizer.networkRouteVisualizer labelFont "\"<default>, 8px\""
par simpleTsn.visualizer.networkRouteVisualizer labelColor "\"\""
par simpleTsn.visualizer.networkRouteVisualizer fadeOutMode "\"realTime\""
attr enum realTime,animationTime,simulationTime
par simpleTsn.visualizer.networkRouteVisualizer fadeOutTime 1s
attr unit s
par simpleTsn.visualizer.networkRouteVisualizer fadeOutAnimationSpeed 0
par simpleTsn.visualizer.networkRouteVisualizer zIndex 3
par simpleTsn.visualizer.routingTableVisualizer typename "\"inet.visualizer.canvas.networklayer.RoutingTableCanvasVisualizer\""
par simpleTsn.visualizer.routingTableVisualizer visualizationTargetModule "\"^.^\""
par simpleTsn.visualizer.routingTableVisualizer visualizationSubjectModule "\"^.^\""
par simpleTsn.visualizer.routingTableVisualizer tags "\"\""
par simpleTsn.visualizer.routingTableVisualizer displayRoutingTables false
par simpleTsn.visualizer.routingTableVisualizer displayRoutesIndividually true
par simpleTsn.visualizer.routingTableVisualizer displayLabels true
par simpleTsn.visualizer.routingTableVisualizer destinationFilter "\"*\""
attr mutable ""
par simpleTsn.visualizer.routingTableVisualizer nodeFilter "\"*\""
attr mutable ""
par simpleTsn.visualizer.routingTableVisualizer lineColor "\"black\""
par simpleTsn.visualizer.routingTableVisualizer lineStyle "\"solid\""
par simpleTsn.visualizer.routingTableVisualizer lineWidth 2
par simpleTsn.visualizer.routingTableVisualizer lineShift 16
par simpleTsn.visualizer.routingTableVisualizer lineShiftMode "\"normal\""
par simpleTsn.visualizer.routingTableVisualizer lineContactSpacing 3
par simpleTsn.visualizer.routingTableVisualizer lineContactMode "\"rectangular\""
attr enum circular,rectangular
par simpleTsn.visualizer.routingTableVisualizer labelFormat "\"%d/%m -> %g (%n)\""
attr mutable ""
par simpleTsn.visualizer.routingTableVisualizer labelFont "\"<default>, 8px\""
par simpleTsn.visualizer.routingTableVisualizer labelColor "\"black\""
par simpleTsn.visualizer.routingTableVisualizer zIndex 0
par simpleTsn.visualizer.transportRouteVisualizer typename "\"inet.visualizer.canvas.transportlayer.TransportRouteCanvasVisualizer\""
par simpleTsn.visualizer.transportRouteVisualizer visualizationTargetModule "\"^.^\""
par simpleTsn.visualizer.transportRouteVisualizer visualizationSubjectModule "\"^.^\""
par simpleTsn.visualizer.transportRouteVisualizer tags "\"\""
par simpleTsn.visualizer.transportRouteVisualizer displayRoutes false
par simpleTsn.visualizer.transportRouteVisualizer startPathSignal "\"packetReceivedFromUpper\""
par simpleTsn.visualizer.transportRouteVisualizer extendPathSignal "\"packetReceivedFromLower\""
par simpleTsn.visualizer.transportRouteVisualizer endPathSignal "\"packetSentToUpper\""
par simpleTsn.visualizer.transportRouteVisualizer nodeFilter "\"*\""
attr mutable ""
par simpleTsn.visualizer.transportRouteVisualizer packetFilter "(omnetpp::cValueHolder)holder: \"*\""
attr mutable ""
par simpleTsn.visualizer.transportRouteVisualizer lineColor "\"dark\""
attr enum light,dark
par simpleTsn.visualizer.transportRouteVisualizer lineStyle "\"solid\""
par simpleTsn.visualizer.transportRouteVisualizer lineWidth 3
par simpleTsn.visualizer.transportRouteVisualizer lineSmooth false
par simpleTsn.visualizer.transportRouteVisualizer lineShift 16
par simpleTsn.visualizer.transportRouteVisualizer lineShiftMode "\"normal\""
par simpleTsn.visualizer.transportRouteVisualizer lineContactSpacing 3
par simpleTsn.visualizer.transportRouteVisualizer lineContactMode "\"rectangular\""
attr enum circular,rectangular
par simpleTsn.visualizer.transportRouteVisualizer labelFormat "\"%n\""
par simpleTsn.visualizer.transportRouteVisualizer labelFont "\"<default>, 8px\""
par simpleTsn.visualizer.transportRouteVisualizer labelColor "\"\""
par simpleTsn.visualizer.transportRouteVisualizer fadeOutMode "\"realTime\""
attr enum realTime,animationTime,simulationTime
par simpleTsn.visualizer.transportRouteVisualizer fadeOutTime 1s
attr unit s
par simpleTsn.visualizer.transportRouteVisualizer fadeOutAnimationSpeed 0
par simpleTsn.visualizer.transportRouteVisualizer zIndex 4
par simpleTsn.visualizer.transportConnectionVisualizer typename "\"inet.visualizer.canvas.transportlayer.TransportConnectionCanvasVisualizer\""
par simpleTsn.visualizer.transportConnectionVisualizer visualizationTargetModule "\"^.^\""
par simpleTsn.visualizer.transportConnectionVisualizer visualizationSubjectModule "\"^.^\""
par simpleTsn.visualizer.transportConnectionVisualizer tags "\"\""
par simpleTsn.visualizer.transportConnectionVisualizer networkNodeVisualizerModule "\"^.networkNodeVisualizer\""
par simpleTsn.visualizer.transportConnectionVisualizer displayTransportConnections false
par simpleTsn.visualizer.transportConnectionVisualizer sourceNodeFilter "\"*\""
attr mutable ""
par simpleTsn.visualizer.transportConnectionVisualizer sourcePortFilter "\"*\""
attr mutable ""
par simpleTsn.visualizer.transportConnectionVisualizer destinationNodeFilter "\"*\""
attr mutable ""
par simpleTsn.visualizer.transportConnectionVisualizer destinationPortFilter "\"*\""
attr mutable ""
par simpleTsn.visualizer.transportConnectionVisualizer icon "\"misc/marker_s\""
par simpleTsn.visualizer.transportConnectionVisualizer iconColor "\"dark\""
attr enum light,dark
par simpleTsn.visualizer.transportConnectionVisualizer labelFont "\"<default>\""
par simpleTsn.visualizer.transportConnectionVisualizer labelColor "\"black\""
par simpleTsn.visualizer.transportConnectionVisualizer placementHint "\"top\""
par simpleTsn.visualizer.transportConnectionVisualizer placementPriority 0
par simpleTsn.visualizer.transportConnectionVisualizer zIndex 4
par simpleTsn.visualizer.failureProtectionConfigurationVisualizer typename "\"inet.visualizer.canvas.configurator.FailureProtectionConfigurationCanvasVisualizer\""
par simpleTsn.visualizer.failureProtectionConfigurationVisualizer visualizationTargetModule "\"^.^\""
par simpleTsn.visualizer.failureProtectionConfigurationVisualizer visualizationSubjectModule "\"^.^\""
par simpleTsn.visualizer.failureProtectionConfigurationVisualizer tags "\"\""
par simpleTsn.visualizer.failureProtectionConfigurationVisualizer displayTrees false
par simpleTsn.visualizer.failureProtectionConfigurationVisualizer lineColor "\"dark\""
attr enum light,dark
par simpleTsn.visualizer.failureProtectionConfigurationVisualizer lineStyle "\"solid\""
par simpleTsn.visualizer.failureProtectionConfigurationVisualizer lineWidth 3
par simpleTsn.visualizer.failureProtectionConfigurationVisualizer lineSmooth false
par simpleTsn.visualizer.failureProtectionConfigurationVisualizer lineShift 16
par simpleTsn.visualizer.failureProtectionConfigurationVisualizer lineShiftMode "\"normal\""
par simpleTsn.visualizer.failureProtectionConfigurationVisualizer lineContactSpacing 3
par simpleTsn.visualizer.failureProtectionConfigurationVisualizer lineContactMode "\"rectangular\""
attr enum circular,rectangular
par simpleTsn.visualizer.failureProtectionConfigurationVisualizer failureProtectionConfiguratorModule "\"failureProtectionConfigurator\""
par simpleTsn.visualizer.failureProtectionConfigurationVisualizer streamFilter "\"*\""
par simpleTsn.visualizer.failureProtectionConfigurationVisualizer zIndex 3
par simpleTsn.visualizer.streamRedundancyConfigurationVisualizer typename "\"inet.visualizer.canvas.configurator.StreamRedundancyConfigurationCanvasVisualizer\""
par simpleTsn.visualizer.streamRedundancyConfigurationVisualizer visualizationTargetModule "\"^.^\""
par simpleTsn.visualizer.streamRedundancyConfigurationVisualizer visualizationSubjectModule "\"^.^\""
par simpleTsn.visualizer.streamRedundancyConfigurationVisualizer tags "\"\""
par simpleTsn.visualizer.streamRedundancyConfigurationVisualizer displayTrees false
par simpleTsn.visualizer.streamRedundancyConfigurationVisualizer lineColor "\"dark\""
attr enum light,dark
par simpleTsn.visualizer.streamRedundancyConfigurationVisualizer lineStyle "\"solid\""
par simpleTsn.visualizer.streamRedundancyConfigurationVisualizer lineWidth 3
par simpleTsn.visualizer.streamRedundancyConfigurationVisualizer lineSmooth false
par simpleTsn.visualizer.streamRedundancyConfigurationVisualizer lineShift 16
par simpleTsn.visualizer.streamRedundancyConfigurationVisualizer lineShiftMode "\"normal\""
par simpleTsn.visualizer.streamRedundancyConfigurationVisualizer lineContactSpacing 3
par simpleTsn.visualizer.streamRedundancyConfigurationVisualizer lineContactMode "\"rectangular\""
attr enum circular,rectangular
par simpleTsn.visualizer.streamRedundancyConfigurationVisualizer streamRedundancyConfiguratorModule "\"streamRedundancyConfigurator\""
par simpleTsn.visualizer.streamRedundancyConfigurationVisualizer streamFilter "\"*\""
par simpleTsn.visualizer.streamRedundancyConfigurationVisualizer zIndex 3
par simpleTsn.visualizer typename "\"inet.visualizer.canvas.integrated.IntegratedCanvasVisualizer\""
par simpleTsn.configurator typename "\"inet.networklayer.configurator.ipv4.Ipv4NetworkConfigurator\""
par simpleTsn.configurator minLinkWeight 0.001
par simpleTsn.configurator configureIsolatedNetworksSeparatly false
par simpleTsn.configurator config "<config>...</config> at content:1"
par simpleTsn.configurator assignAddresses true
par simpleTsn.configurator assignUniqueAddresses true
par simpleTsn.configurator assignDisjunctSubnetAddresses true
par simpleTsn.configurator addStaticRoutes true
par simpleTsn.configurator addDefaultRoutes true
par simpleTsn.configurator addSubnetRoutes true
par simpleTsn.configurator addDirectRoutes true
par simpleTsn.configurator optimizeRoutes true
par simpleTsn.configurator dumpTopology false
par simpleTsn.configurator dumpLinks false
par simpleTsn.configurator dumpAddresses false
par simpleTsn.configurator dumpRoutes false
par simpleTsn.configurator dumpConfig "\"\""
par simpleTsn.tsnController.cuc typename "\"inet.centralconfigurator.CentralUserConfig\""
par simpleTsn.tsnController.cnc typename "\"inet.centralconfigurator.CentralNetworkConfig\""
par simpleTsn.tsnController.gateScheduleConfigurator typename "\"inet.linklayer.configurator.gatescheduling.common.wTSNGateScheduleConfigurator\""
par simpleTsn.tsnController.gateScheduleConfigurator gateCycleDuration 0.001s
attr unit s
par simpleTsn.tsnController.gateScheduleConfigurator configuration "[{application: \"app[0]\", destination: \"device2\", flowEndTime: 5s, flowStartTime: 3s, gamma: 1, gateIndex: 4, maxJitter: 5ms, maxLatency: 500us, name: \"stream1\", packetInterval: 20ms, packetLength: 946B, pcp: 4, source: \"device1\"}, {application: \"app[0]\", destination: \"device2\", flowEndTime: 100s, flowStartTime: 6s, gamma: 1, gateIndex: 4, maxJitter: 5ms, maxLatency: 300us, name: \"stream2\", packetInterval: 100ms, packetLength: 946B, pcp: 4, source: \"device3\"}]"
attr mutable ""
par simpleTsn.tsnController typename "\"inet.centralconfigurator.TsnController\""
par simpleTsn.scenarioManager typename "\"inet.common.scenario.ScenarioManager\""
par simpleTsn.scenarioManager script "<scenario>...</scenario> at /simulations/6GDetCom_Simulator/simulations/simpleTsn//scenario.xml:1"
par simpleTsn.histogramContainer typename "\"d6g.distribution.histogram.HistogramContainer\""
par simpleTsn.histogramContainer histograms "{Downlink: \"../../../deterministic6g_data/PD-Wireless-5G-1/s10-DL_wall.xml\", Uplink: \"../../../deterministic6g_data/PD-Wireless-5G-1/s1-UL_wall.xml\"}"
par simpleTsn.bridge1.eth[0].phys$o.channel typename "\"ned.IdealChannel\""
par simpleTsn.bridge1.ethg$i[0].channel typename "\"ned.IdealChannel\""
par simpleTsn.bridge1.eth[1].phys$o.channel typename "\"ned.IdealChannel\""
par simpleTsn.bridge1.ethg$i[1].channel typename "\"ned.IdealChannel\""
par simpleTsn.bridge1.eth[2].phys$o.channel typename "\"ned.IdealChannel\""
par simpleTsn.bridge1.ethg$i[2].channel typename "\"ned.IdealChannel\""
par simpleTsn.bridge1.macTable typename "\"inet.linklayer.ethernet.common.MacForwardingTable\""
par simpleTsn.bridge1.macTable agingTime 120s
attr unit s
par simpleTsn.bridge1.macTable forwardingTable "[{address: \"device2\", interface: \"eth1\", vlan: 1}]"
attr mutable ""
par simpleTsn.bridge1.macTable forwardingTableFile "\"\""
par simpleTsn.bridge1.macTable interfaceTableModule "\"simpleTsn.bridge1.interfaceTable\""
par simpleTsn.bridge1.macTable displayStringTextFormat "\"addr: %a\\nvlan: %v\""
par simpleTsn.bridge1.interfaceTable typename "\"inet.networklayer.common.InterfaceTable\""
par simpleTsn.bridge1.interfaceTable displayAddresses false
par simpleTsn.bridge1.sc typename "\"inet.common.MessageDispatcher\""
par simpleTsn.bridge1.sc displayStringTextFormat "\"processed %p pk (%l)\""
par simpleTsn.bridge1.sc forwardServiceRegistration true
par simpleTsn.bridge1.sc forwardProtocolRegistration true
par simpleTsn.bridge1.cb typename "\"inet.common.MessageDispatcher\""
par simpleTsn.bridge1.cb displayStringTextFormat "\"processed %p pk (%l)\""
par simpleTsn.bridge1.cb forwardServiceRegistration true
par simpleTsn.bridge1.cb forwardProtocolRegistration true
par simpleTsn.bridge1.bridging.directionReverser.upperLayerIn.channel typename "\"ned.IdealChannel\""
par simpleTsn.bridge1.bridging.directionReverser.join.out.channel typename "\"ned.IdealChannel\""
par simpleTsn.bridge1.bridging.directionReverser.lowerLayerIn.channel typename "\"ned.IdealChannel\""
par simpleTsn.bridge1.bridging.directionReverser.fork.out[0].channel typename "\"ned.IdealChannel\""
par simpleTsn.bridge1.bridging.directionReverser.fork typename "\"inet.common.MessageDispatcher\""
par simpleTsn.bridge1.bridging.directionReverser.fork displayStringTextFormat "\"processed %p pk (%l)\""
par simpleTsn.bridge1.bridging.directionReverser.fork forwardServiceRegistration false
par simpleTsn.bridge1.bridging.directionReverser.fork forwardProtocolRegistration true
par simpleTsn.bridge1.bridging.directionReverser.reverser typename "\"inet.linklayer.ethernet.common.PacketDirectionReverser\""
par simpleTsn.bridge1.bridging.directionReverser.reverser displayStringTextFormat "\"processed %p pk (%l)\""
par simpleTsn.bridge1.bridging.directionReverser.reverser forwardVlan true
par simpleTsn.bridge1.bridging.directionReverser.reverser forwardPcp true
par simpleTsn.bridge1.bridging.directionReverser.reverser excludeEncapsulationProtocols "[\"ieee8021qctag\"]"
scalar simpleTsn.bridge1.bridging.directionReverser.reverser outgoingPackets:count 51
attr recordingmode count
attr source "merge(packetPushedOut, packetPulledOut)"
attr title "outgoing packets, count"
attr unit pk
scalar simpleTsn.bridge1.bridging.directionReverser.reverser outgoingPacketLengths:sum 397392
attr interpolationmode none
attr recordingmode sum
attr source "packetLength(merge(packetPushedOut, packetPulledOut))"
attr title "outgoing packet lengths, sum"
attr unit b
statistic simpleTsn.bridge1.bridging.directionReverser.reverser outgoingPacketLengths:histogram
field count 51
field mean 7792
field stddev 0
field min 7792
field max 7792
field sum 397392
field sqrsum 3096478464
attr interpolationmode none
attr recordingmode histogram
attr source "packetLength(merge(packetPushedOut, packetPulledOut))"
attr title "outgoing packet lengths"
attr unit b
bin	-inf	0
bin	7791	0
bin	7792	51
bin	7793	0
scalar simpleTsn.bridge1.bridging.directionReverser.reverser flowOutgoingPacketLengths:sum 0
attr interpolationmode none
attr recordingmode sum
attr source "packetLength(demuxFlow(merge(packetPushedOut, packetPulledOut)))"
attr title "flow specific outgoing packet lengths, sum"
attr unit b
statistic simpleTsn.bridge1.bridging.directionReverser.reverser flowOutgoingPacketLengths:histogram
field count 0
field mean -nan
field stddev nan
field min nan
field max nan
field sum 0
field sqrsum 0
attr interpolationmode none
attr recordingmode histogram
attr source "packetLength(demuxFlow(merge(packetPushedOut, packetPulledOut)))"
attr title "flow specific outgoing packet lengths"
attr unit b
bin	-inf	0
bin	0	0
bin	1	0
scalar simpleTsn.bridge1.bridging.directionReverser.reverser incomingPackets:count 51
attr recordingmode count
attr source "merge(packetPushedIn, packetPulledIn)"
attr title "incoming packets, count"
attr unit pk
scalar simpleTsn.bridge1.bridging.directionReverser.reverser incomingPacketLengths:sum 397392
attr interpolationmode none
attr recordingmode sum
attr source "packetLength(merge(packetPushedIn, packetPulledIn))"
attr title "incoming packet lengths, sum"
attr unit b
statistic simpleTsn.bridge1.bridging.directionReverser.reverser incomingPacketLengths:histogram
field count 51
field mean 7792
field stddev 0
field min 7792
field max 7792
field sum 397392
field sqrsum 3096478464
attr interpolationmode none
attr recordingmode histogram
attr source "packetLength(merge(packetPushedIn, packetPulledIn))"
attr title "incoming packet lengths"
attr unit b
bin	-inf	0
bin	7791	0
bin	7792	51
bin	7793	0
scalar simpleTsn.bridge1.bridging.directionReverser.reverser flowIncomingPacketLengths:sum 0
attr interpolationmode none
attr recordingmode sum
attr source "packetLength(demuxFlow(merge(packetPushedIn, packetPulledIn)))"
attr title "flow specific incoming packet lengths, sum"
attr unit b
statistic simpleTsn.bridge1.bridging.directionReverser.reverser flowIncomingPacketLengths:histogram
field count 0
field mean -nan
field stddev nan
field min nan
field max nan
field sum 0
field sqrsum 0
attr interpolationmode none
attr recordingmode histogram
attr source "packetLength(demuxFlow(merge(packetPushedIn, packetPulledIn)))"
attr title "flow specific incoming packet lengths"
attr unit b
bin	-inf	0
bin	0	0
bin	1	0
par simpleTsn.bridge1.bridging.directionReverser.join typename "\"inet.queueing.common.PacketMultiplexer\""
par simpleTsn.bridge1.bridging.directionReverser.join displayStringTextFormat "\"passed %p pk (%l)\""
par simpleTsn.bridge1.bridging.directionReverser.join forwardServiceRegistration true
par simpleTsn.bridge1.bridging.directionReverser.join forwardProtocolRegistration false
scalar simpleTsn.bridge1.bridging.directionReverser.join packets:count 0
attr recordingmode count
attr source "merge(packetPushed, packetPulled)"
attr title "packets, count"
attr unit pk
scalar simpleTsn.bridge1.bridging.directionReverser.join packetLengths:sum 0
attr interpolationmode none
attr recordingmode sum
attr source "packetLength(merge(packetPushed, packetPulled))"
attr title "packet lengths, sum"
attr unit b
statistic simpleTsn.bridge1.bridging.directionReverser.join packetLengths:histogram
field count 0
field mean -nan
field stddev nan
field min nan
field max nan
field sum 0
field sqrsum 0
attr interpolationmode none
attr recordingmode histogram
attr source "packetLength(merge(packetPushed, packetPulled))"
attr title "packet lengths"
attr unit b
bin	-inf	0
bin	0	0
bin	1	0
par simpleTsn.bridge1.bridging.directionReverser typename "\"inet.linklayer.ethernet.common.DirectionReverserLayer\""
par simpleTsn.bridge1.bridging.streamIdentifier.upperLayerIn.channel typename "\"ned.IdealChannel\""
par simpleTsn.bridge1.bridging.streamIdentifier.identifier.out.channel typename "\"ned.IdealChannel\""
par simpleTsn.bridge1.bridging.streamIdentifier.identifier typename "\"inet.protocolelement.redundancy.StreamIdentifier\""
par simpleTsn.bridge1.bridging.streamIdentifier.identifier displayStringTextFormat "\"processed %p pk (%l)\""
par simpleTsn.bridge1.bridging.streamIdentifier.identifier hasSequenceNumbering true
par simpleTsn.bridge1.bridging.streamIdentifier.identifier mapping "[{packetFilter: (omnetpp::cOwnedDynamicExpression)mapping.array4.map5., stream: \"stream1\"}, {packetFilter: (omnetpp::cOwnedDynamicExpression)mapping.array4.map6., stream: \"stream2\"}]"
attr mutable ""
scalar simpleTsn.bridge1.bridging.streamIdentifier.identifier outgoingPackets:count 51
attr recordingmode count
attr source "merge(packetPushedOut, packetPulledOut)"
attr title "outgoing packets, count"
attr unit pk
scalar simpleTsn.bridge1.bridging.streamIdentifier.identifier outgoingPacketLengths:sum 397392
attr interpolationmode none
attr recordingmode sum
attr source "packetLength(merge(packetPushedOut, packetPulledOut))"
attr title "outgoing packet lengths, sum"
attr unit b
statistic simpleTsn.bridge1.bridging.streamIdentifier.identifier outgoingPacketLengths:histogram
field count 51
field mean 7792
field stddev 0
field min 7792
field max 7792
field sum 397392
field sqrsum 3096478464
attr interpolationmode none
attr recordingmode histogram
attr source "packetLength(merge(packetPushedOut, packetPulledOut))"
attr title "outgoing packet lengths"
attr unit b
bin	-inf	0
bin	7791	0
bin	7792	51
bin	7793	0
scalar simpleTsn.bridge1.bridging.streamIdentifier.identifier flowOutgoingPacketLengths:sum 0
attr interpolationmode none
attr recordingmode sum
attr source "packetLength(demuxFlow(merge(packetPushedOut, packetPulledOut)))"
attr title "flow specific outgoing packet lengths, sum"
attr unit b
statistic simpleTsn.bridge1.bridging.streamIdentifier.identifier flowOutgoingPacketLengths:histogram
field count 0
field mean -nan
field stddev nan
field min nan
field max nan
field sum 0
field sqrsum 0
attr interpolationmode none
attr recordingmode histogram
attr source "packetLength(demuxFlow(merge(packetPushedOut, packetPulledOut)))"
attr title "flow specific outgoing packet lengths"
attr unit b
bin	-inf	0
bin	0	0
bin	1	0
scalar simpleTsn.bridge1.bridging.streamIdentifier.identifier incomingPackets:count 51
attr recordingmode count
attr source "merge(packetPushedIn, packetPulledIn)"
attr title "incoming packets, count"
attr unit pk
scalar simpleTsn.bridge1.bridging.streamIdentifier.identifier incomingPacketLengths:sum 397392
attr interpolationmode none
attr recordingmode sum
attr source "packetLength(merge(packetPushedIn, packetPulledIn))"
attr title "incoming packet lengths, sum"
attr unit b
statistic simpleTsn.bridge1.bridging.streamIdentifier.identifier incomingPacketLengths:histogram
field count 51
field mean 7792
field stddev 0
field min 7792
field max 7792
field sum 397392
field sqrsum 3096478464
attr interpolationmode none
attr recordingmode histogram
attr source "packetLength(merge(packetPushedIn, packetPulledIn))"
attr title "incoming packet lengths"
attr unit b
bin	-inf	0
bin	7791	0
bin	7792	51
bin	7793	0
scalar simpleTsn.bridge1.bridging.streamIdentifier.identifier flowIncomingPacketLengths:sum 0
attr interpolationmode none
attr recordingmode sum
attr source "packetLength(demuxFlow(merge(packetPushedIn, packetPulledIn)))"
attr title "flow specific incoming packet lengths, sum"
attr unit b
statistic simpleTsn.bridge1.bridging.streamIdentifier.identifier flowIncomingPacketLengths:histogram
field count 0
field mean -nan
field stddev nan
field min nan
field max nan
field sum 0
field sqrsum 0
attr interpolationmode none
attr recordingmode histogram
attr source "packetLength(demuxFlow(merge(packetPushedIn, packetPulledIn)))"
attr title "flow specific incoming packet lengths"
attr unit b
bin	-inf	0
bin	0	0
bin	1	0
par simpleTsn.bridge1.bridging.streamIdentifier typename "\"inet.protocolelement.redundancy.StreamIdentifierLayer\""
par simpleTsn.bridge1.bridging.streamCoder.upperLayerIn.channel typename "\"ned.IdealChannel\""
par simpleTsn.bridge1.bridging.streamCoder.encoder.out.channel typename "\"ned.IdealChannel\""
par simpleTsn.bridge1.bridging.streamCoder.lowerLayerIn.channel typename "\"ned.IdealChannel\""
par simpleTsn.bridge1.bridging.streamCoder.decoder.out.channel typename "\"ned.IdealChannel\""
par simpleTsn.bridge1.bridging.streamCoder.decoder typename "\"inet.protocolelement.redundancy.StreamDecoder\""
par simpleTsn.bridge1.bridging.streamCoder.decoder displayStringTextFormat "\"processed %p pk (%l)\""
par simpleTsn.bridge1.bridging.streamCoder.decoder interfaceTableModule "\"simpleTsn.bridge1.interfaceTable\""
par simpleTsn.bridge1.bridging.streamCoder.decoder mapping "[{pcp: 4, stream: \"stream1\", vlan: 1}, {pcp: 4, stream: \"stream2\", vlan: 1}]"
attr mutable ""
scalar simpleTsn.bridge1.bridging.streamCoder.decoder outgoingPackets:count 51
attr recordingmode count
attr source "merge(packetPushedOut, packetPulledOut)"
attr title "outgoing packets, count"
attr unit pk
scalar simpleTsn.bridge1.bridging.streamCoder.decoder outgoingPacketLengths:sum 397392
attr interpolationmode none
attr recordingmode sum
attr source "packetLength(merge(packetPushedOut, packetPulledOut))"
attr title "outgoing packet lengths, sum"
attr unit b
statistic simpleTsn.bridge1.bridging.streamCoder.decoder outgoingPacketLengths:histogram
field count 51
field mean 7792
field stddev 0
field min 7792
field max 7792
field sum 397392
field sqrsum 3096478464
attr interpolationmode none
attr recordingmode histogram
attr source "packetLength(merge(packetPushedOut, packetPulledOut))"
attr title "outgoing packet lengths"
attr unit b
bin	-inf	0
bin	7791	0
bin	7792	51
bin	7793	0
scalar simpleTsn.bridge1.bridging.streamCoder.decoder flowOutgoingPacketLengths:sum 0
attr interpolationmode none
attr recordingmode sum
attr source "packetLength(demuxFlow(merge(packetPushedOut, packetPulledOut)))"
attr title "flow specific outgoing packet lengths, sum"
attr unit b
statistic simpleTsn.bridge1.bridging.streamCoder.decoder flowOutgoingPacketLengths:histogram
field count 0
field mean -nan
field stddev nan
field min nan
field max nan
field sum 0
field sqrsum 0
attr interpolationmode none
attr recordingmode histogram
attr source "packetLength(demuxFlow(merge(packetPushedOut, packetPulledOut)))"
attr title "flow specific outgoing packet lengths"
attr unit b
bin	-inf	0
bin	0	0
bin	1	0
scalar simpleTsn.bridge1.bridging.streamCoder.decoder incomingPackets:count 51
attr recordingmode count
attr source "merge(packetPushedIn, packetPulledIn)"
attr title "incoming packets, count"
attr unit pk
scalar simpleTsn.bridge1.bridging.streamCoder.decoder incomingPacketLengths:sum 397392
attr interpolationmode none
attr recordingmode sum
attr source "packetLength(merge(packetPushedIn, packetPulledIn))"
attr title "incoming packet lengths, sum"
attr unit b
statistic simpleTsn.bridge1.bridging.streamCoder.decoder incomingPacketLengths:histogram
field count 51
field mean 7792
field stddev 0
field min 7792
field max 7792
field sum 397392
field sqrsum 3096478464
attr interpolationmode none
attr recordingmode histogram
attr source "packetLength(merge(packetPushedIn, packetPulledIn))"
attr title "incoming packet lengths"
attr unit b
bin	-inf	0
bin	7791	0
bin	7792	51
bin	7793	0
scalar simpleTsn.bridge1.bridging.streamCoder.decoder flowIncomingPacketLengths:sum 0
attr interpolationmode none
attr recordingmode sum
attr source "packetLength(demuxFlow(merge(packetPushedIn, packetPulledIn)))"
attr title "flow specific incoming packet lengths, sum"
attr unit b
statistic simpleTsn.bridge1.bridging.streamCoder.decoder flowIncomingPacketLengths:histogram
field count 0
field mean -nan
field stddev nan
field min nan
field max nan
field sum 0
field sqrsum 0
attr interpolationmode none
attr recordingmode histogram
attr source "packetLength(demuxFlow(merge(packetPushedIn, packetPulledIn)))"
attr title "flow specific incoming packet lengths"
attr unit b
bin	-inf	0
bin	0	0
bin	1	0
par simpleTsn.bridge1.bridging.streamCoder.encoder typename "\"inet.protocolelement.redundancy.StreamEncoder\""
par simpleTsn.bridge1.bridging.streamCoder.encoder displayStringTextFormat "\"processed %p pk (%l)\""
par simpleTsn.bridge1.bridging.streamCoder.encoder mapping "[{pcp: 4, stream: \"stream1\", vlan: 1}, {pcp: 4, stream: \"stream2\", vlan: 1}]"
attr mutable ""
scalar simpleTsn.bridge1.bridging.streamCoder.encoder outgoingPackets:count 51
attr recordingmode count
attr source "merge(packetPushedOut, packetPulledOut)"
attr title "outgoing packets, count"
attr unit pk
scalar simpleTsn.bridge1.bridging.streamCoder.encoder outgoingPacketLengths:sum 397392
attr interpolationmode none
attr recordingmode sum
attr source "packetLength(merge(packetPushedOut, packetPulledOut))"
attr title "outgoing packet lengths, sum"
attr unit b
statistic simpleTsn.bridge1.bridging.streamCoder.encoder outgoingPacketLengths:histogram
field count 51
field mean 7792
field stddev 0
field min 7792
field max 7792
field sum 397392
field sqrsum 3096478464
attr interpolationmode none
attr recordingmode histogram
attr source "packetLength(merge(packetPushedOut, packetPulledOut))"
attr title "outgoing packet lengths"
attr unit b
bin	-inf	0
bin	7791	0
bin	7792	51
bin	7793	0
scalar simpleTsn.bridge1.bridging.streamCoder.encoder flowOutgoingPacketLengths:sum 0
attr interpolationmode none
attr recordingmode sum
attr source "packetLength(demuxFlow(merge(packetPushedOut, packetPulledOut)))"
attr title "flow specific outgoing packet lengths, sum"
attr unit b
statistic simpleTsn.bridge1.bridging.streamCoder.encoder flowOutgoingPacketLengths:histogram
field count 0
field mean -nan
field stddev nan
field min nan
field max nan
field sum 0
field sqrsum 0
attr interpolationmode none
attr recordingmode histogram
attr source "packetLength(demuxFlow(merge(packetPushedOut, packetPulledOut)))"
attr title "flow specific outgoing packet lengths"
attr unit b
bin	-inf	0
bin	0	0
bin	1	0
scalar simpleTsn.bridge1.bridging.streamCoder.encoder incomingPackets:count 51
attr recordingmode count
attr source "merge(packetPushedIn, packetPulledIn)"
attr title "incoming packets, count"
attr unit pk
scalar simpleTsn.bridge1.bridging.streamCoder.encoder incomingPacketLengths:sum 397392
attr interpolationmode none
attr recordingmode sum
attr source "packetLength(merge(packetPushedIn, packetPulledIn))"
attr title "incoming packet lengths, sum"
attr unit b
statistic simpleTsn.bridge1.bridging.streamCoder.encoder incomingPacketLengths:histogram
field count 51
field mean 7792
field stddev 0
field min 7792
field max 7792
field sum 397392
field sqrsum 3096478464
attr interpolationmode none
attr recordingmode histogram
attr source "packetLength(merge(packetPushedIn, packetPulledIn))"
attr title "incoming packet lengths"
attr unit b
bin	-inf	0
bin	7791	0
bin	7792	51
bin	7793	0
scalar simpleTsn.bridge1.bridging.streamCoder.encoder flowIncomingPacketLengths:sum 0
attr interpolationmode none
attr recordingmode sum
attr source "packetLength(demuxFlow(merge(packetPushedIn, packetPulledIn)))"
attr title "flow specific incoming packet lengths, sum"
attr unit b
statistic simpleTsn.bridge1.bridging.streamCoder.encoder flowIncomingPacketLengths:histogram
field count 0
field mean -nan
field stddev nan
field min nan
field max nan
field sum 0
field sqrsum 0
attr interpolationmode none
attr recordingmode histogram
attr source "packetLength(demuxFlow(merge(packetPushedIn, packetPulledIn)))"
attr title "flow specific incoming packet lengths"
attr unit b
bin	-inf	0
[...]
par simpleTsn.detCom2.nwtt.tt[0].phyLayer.interFrameGapInserter clockModule "\"\""
par simpleTsn.detCom2.nwtt.tt[0].phyLayer.interFrameGapInserter initialChannelBusy false
par simpleTsn.detCom2.nwtt.tt[0].phyLayer.interFrameGapInserter duration 0s
attr unit s
par simpleTsn.detCom2.nwtt.tt[0].phyLayer.outboundEmitter typename "\"inet.protocolelement.common.PacketEmitter\""
par simpleTsn.detCom2.nwtt.tt[0].phyLayer.outboundEmitter displayStringTextFormat "\"processed %p pk (%l)\""
par simpleTsn.detCom2.nwtt.tt[0].phyLayer.outboundEmitter packetFilter "(omnetpp::cValueHolder)holder: \"*\""
par simpleTsn.detCom2.nwtt.tt[0].phyLayer.outboundEmitter direction "\"outbound\""
attr enum undefined,inbound,outbound
par simpleTsn.detCom2.nwtt.tt[0].phyLayer.outboundEmitter signalName "\"packetSentToLower\""
scalar simpleTsn.detCom2.nwtt.tt[0].phyLayer.outboundEmitter outgoingPackets:count 51
attr recordingmode count
attr source "merge(packetPushedOut, packetPulledOut)"
attr title "outgoing packets, count"
attr unit pk
scalar simpleTsn.detCom2.nwtt.tt[0].phyLayer.outboundEmitter outgoingPacketLengths:sum 409632
attr interpolationmode none
attr recordingmode sum
attr source "packetLength(merge(packetPushedOut, packetPulledOut))"
attr title "outgoing packet lengths, sum"
attr unit b
statistic simpleTsn.detCom2.nwtt.tt[0].phyLayer.outboundEmitter outgoingPacketLengths:histogram
field count 51
field mean 8032
field stddev 0
field min 8032
field max 8032
field sum 409632
field sqrsum 3290164224
attr interpolationmode none
attr recordingmode histogram
attr source "packetLength(merge(packetPushedOut, packetPulledOut))"
attr title "outgoing packet lengths"
attr unit b
bin	-inf	0
bin	8031	0
bin	8032	51
bin	8033	0
scalar simpleTsn.detCom2.nwtt.tt[0].phyLayer.outboundEmitter flowOutgoingPacketLengths:sum 0
attr interpolationmode none
attr recordingmode sum
attr source "packetLength(demuxFlow(merge(packetPushedOut, packetPulledOut)))"
attr title "flow specific outgoing packet lengths, sum"
attr unit b
statistic simpleTsn.detCom2.nwtt.tt[0].phyLayer.outboundEmitter flowOutgoingPacketLengths:histogram
field count 0
field mean -nan
field stddev nan
field min nan
field max nan
field sum 0
field sqrsum 0
attr interpolationmode none
attr recordingmode histogram
attr source "packetLength(demuxFlow(merge(packetPushedOut, packetPulledOut)))"
attr title "flow specific outgoing packet lengths"
attr unit b
bin	-inf	0
bin	0	0
bin	1	0
scalar simpleTsn.detCom2.nwtt.tt[0].phyLayer.outboundEmitter incomingPackets:count 51
attr recordingmode count
attr source "merge(packetPushedIn, packetPulledIn)"
attr title "incoming packets, count"
attr unit pk
scalar simpleTsn.detCom2.nwtt.tt[0].phyLayer.outboundEmitter incomingPacketLengths:sum 409632
attr interpolationmode none
attr recordingmode sum
attr source "packetLength(merge(packetPushedIn, packetPulledIn))"
attr title "incoming packet lengths, sum"
attr unit b
statistic simpleTsn.detCom2.nwtt.tt[0].phyLayer.outboundEmitter incomingPacketLengths:histogram
field count 51
field mean 8032
field stddev 0
field min 8032
field max 8032
field sum 409632
field sqrsum 3290164224
attr interpolationmode none
attr recordingmode histogram
attr source "packetLength(merge(packetPushedIn, packetPulledIn))"
attr title "incoming packet lengths"
attr unit b
bin	-inf	0
bin	8031	0
bin	8032	51
bin	8033	0
scalar simpleTsn.detCom2.nwtt.tt[0].phyLayer.outboundEmitter flowIncomingPacketLengths:sum 0
attr interpolationmode none
attr recordingmode sum
attr source "packetLength(demuxFlow(merge(packetPushedIn, packetPulledIn)))"
attr title "flow specific incoming packet lengths, sum"
attr unit b
statistic simpleTsn.detCom2.nwtt.tt[0].phyLayer.outboundEmitter flowIncomingPacketLengths:histogram
field count 0
field mean -nan
field stddev nan
field min nan
field max nan
field sum 0
field sqrsum 0
attr interpolationmode none
attr recordingmode histogram
attr source "packetLength(demuxFlow(merge(packetPushedIn, packetPulledIn)))"
attr title "flow specific incoming packet lengths"
attr unit b
bin	-inf	0
bin	0	0
bin	1	0
par simpleTsn.detCom2.nwtt.tt[0].phyLayer.transmitter typename "\"inet.protocolelement.transceiver.PacketTransmitter\""
par simpleTsn.detCom2.nwtt.tt[0].phyLayer.transmitter displayStringTextFormat "\"processed %p pk (%l)\""
par simpleTsn.detCom2.nwtt.tt[0].phyLayer.transmitter clockModule "\"\""
par simpleTsn.detCom2.nwtt.tt[0].phyLayer.transmitter datarate this.bitrate
attr unit bps
scalar simpleTsn.detCom2.nwtt.tt[0].phyLayer.transmitter propagationTime 0
statistic simpleTsn.detCom2.nwtt.tt[0].phyLayer.transmitter utilization:histogram
field count 30
field mean 0
field stddev 0
field min 0
field max 0
field sum 0
field sqrsum 0
attr interpolationmode linear
attr recordingmode histogram
attr source "100 * utilization(count(transmissionStarted) - count(transmissionEnded))"
attr title utilization
attr unit %
bin	-inf	0
bin	-0.5	0
bin	-0.48	0
bin	-0.46	0
bin	-0.44	0
bin	-0.42	0
bin	-0.4	0
bin	-0.38	0
bin	-0.36	0
bin	-0.34	0
bin	-0.32	0
bin	-0.3	0
bin	-0.28	0
bin	-0.26	0
bin	-0.24	0
bin	-0.22	0
bin	-0.2	0
bin	-0.18	0
bin	-0.16	0
bin	-0.14	0
bin	-0.12	0
bin	-0.1	0
bin	-0.08	0
bin	-0.06	0
bin	-0.04	0
bin	-0.02	0
bin	0	30
bin	0.02	0
bin	0.04	0
bin	0.06	0
bin	0.08	0
bin	0.1	0
bin	0.12	0
bin	0.14	0
bin	0.16	0
bin	0.18	0
bin	0.2	0
bin	0.22	0
bin	0.24	0
bin	0.26	0
bin	0.28	0
bin	0.3	0
bin	0.32	0
bin	0.34	0
bin	0.36	0
bin	0.38	0
bin	0.4	0
bin	0.42	0
bin	0.44	0
bin	0.46	0
bin	0.48	0
bin	0.5	0
statistic simpleTsn.detCom2.nwtt.tt[0].phyLayer.transmitter transmissionTime:histogram
field count 51
field mean 0
field stddev 0
field min 0
field max 0
field sum 0
field sqrsum 0
attr interpolationmode none
attr recordingmode histogram
attr source packetDuration(transmissionEnded)
attr title "transmission time"
attr unit s
bin	-inf	0
bin	-0.5	0
bin	-0.48	0
bin	-0.46	0
bin	-0.44	0
bin	-0.42	0
bin	-0.4	0
bin	-0.38	0
bin	-0.36	0
bin	-0.34	0
bin	-0.32	0
bin	-0.3	0
bin	-0.28	0
bin	-0.26	0
bin	-0.24	0
bin	-0.22	0
bin	-0.2	0
bin	-0.18	0
bin	-0.16	0
bin	-0.14	0
bin	-0.12	0
bin	-0.1	0
bin	-0.08	0
bin	-0.06	0
bin	-0.04	0
bin	-0.02	0
bin	0	51
bin	0.02	0
bin	0.04	0
bin	0.06	0
bin	0.08	0
bin	0.1	0
bin	0.12	0
bin	0.14	0
bin	0.16	0
bin	0.18	0
bin	0.2	0
bin	0.22	0
bin	0.24	0
bin	0.26	0
bin	0.28	0
bin	0.3	0
bin	0.32	0
bin	0.34	0
bin	0.36	0
bin	0.38	0
bin	0.4	0
bin	0.42	0
bin	0.44	0
bin	0.46	0
bin	0.48	0
bin	0.5	0
statistic simpleTsn.detCom2.nwtt.tt[0].phyLayer.transmitter flowTransmissionTime:histogram
field count 0
field mean -nan
field stddev nan
field min nan
field max nan
field sum 0
field sqrsum 0
attr interpolationmode none
attr recordingmode histogram
attr source packetDuration(demuxFlow(transmissionEnded))
attr title "flow transmission time"
attr unit s
bin	-inf	0
bin	0	0
bin	1	0
par simpleTsn.detCom2.nwtt.tt[0].phyLayer.phyHeaderChecker typename "\"inet.physicallayer.wired.ethernet.EthernetPhyHeaderChecker\""
par simpleTsn.detCom2.nwtt.tt[0].phyLayer.phyHeaderChecker displayStringTextFormat "\"dropped %d/%p pk (%k/%l)\""
par simpleTsn.detCom2.nwtt.tt[0].phyLayer.phyHeaderChecker backpressure false
scalar simpleTsn.detCom2.nwtt.tt[0].phyLayer.phyHeaderChecker outgoingPackets:count 0
attr recordingmode count
attr source "merge(packetPushedOut, packetPulledOut)"
attr title "outgoing packets, count"
attr unit pk
scalar simpleTsn.detCom2.nwtt.tt[0].phyLayer.phyHeaderChecker outgoingPacketLengths:sum 0
attr interpolationmode none
attr recordingmode sum
attr source "packetLength(merge(packetPushedOut, packetPulledOut))"
attr title "outgoing packet lengths, sum"
attr unit b
statistic simpleTsn.detCom2.nwtt.tt[0].phyLayer.phyHeaderChecker outgoingPacketLengths:histogram
field count 0
field mean -nan
field stddev nan
field min nan
field max nan
field sum 0
field sqrsum 0
attr interpolationmode none
attr recordingmode histogram
attr source "packetLength(merge(packetPushedOut, packetPulledOut))"
attr title "outgoing packet lengths"
attr unit b
bin	-inf	0
bin	0	0
bin	1	0
scalar simpleTsn.detCom2.nwtt.tt[0].phyLayer.phyHeaderChecker flowOutgoingPacketLengths:sum 0
attr interpolationmode none
attr recordingmode sum
attr source "packetLength(demuxFlow(merge(packetPushedOut, packetPulledOut)))"
attr title "flow specific outgoing packet lengths, sum"
attr unit b
statistic simpleTsn.detCom2.nwtt.tt[0].phyLayer.phyHeaderChecker flowOutgoingPacketLengths:histogram
field count 0
field mean -nan
field stddev nan
field min nan
field max nan
field sum 0
field sqrsum 0
attr interpolationmode none
attr recordingmode histogram
attr source "packetLength(demuxFlow(merge(packetPushedOut, packetPulledOut)))"
attr title "flow specific outgoing packet lengths"
attr unit b
bin	-inf	0
bin	0	0
bin	1	0
scalar simpleTsn.detCom2.nwtt.tt[0].phyLayer.phyHeaderChecker incomingPackets:count 0
attr recordingmode count
attr source "merge(packetPushedIn, packetPulledIn)"
attr title "incoming packets, count"
attr unit pk
scalar simpleTsn.detCom2.nwtt.tt[0].phyLayer.phyHeaderChecker incomingPacketLengths:sum 0
attr interpolationmode none
attr recordingmode sum
attr source "packetLength(merge(packetPushedIn, packetPulledIn))"
attr title "incoming packet lengths, sum"
attr unit b
statistic simpleTsn.detCom2.nwtt.tt[0].phyLayer.phyHeaderChecker incomingPacketLengths:histogram
field count 0
field mean -nan
field stddev nan
field min nan
field max nan
field sum 0
field sqrsum 0
attr interpolationmode none
attr recordingmode histogram
attr source "packetLength(merge(packetPushedIn, packetPulledIn))"
attr title "incoming packet lengths"
attr unit b
bin	-inf	0
bin	0	0
bin	1	0
scalar simpleTsn.detCom2.nwtt.tt[0].phyLayer.phyHeaderChecker flowIncomingPacketLengths:sum 0
attr interpolationmode none
attr recordingmode sum
attr source "packetLength(demuxFlow(merge(packetPushedIn, packetPulledIn)))"
attr title "flow specific incoming packet lengths, sum"
attr unit b
statistic simpleTsn.detCom2.nwtt.tt[0].phyLayer.phyHeaderChecker flowIncomingPacketLengths:histogram
field count 0
field mean -nan
field stddev nan
field min nan
field max nan
field sum 0
field sqrsum 0
attr interpolationmode none
attr recordingmode histogram
attr source "packetLength(demuxFlow(merge(packetPushedIn, packetPulledIn)))"
attr title "flow specific incoming packet lengths"
attr unit b
bin	-inf	0
bin	0	0
bin	1	0
scalar simpleTsn.detCom2.nwtt.tt[0].phyLayer.phyHeaderChecker droppedPackets:count 0
attr recordingmode count
attr source packetDropped
attr title "dropped packets, count"
attr unit pk
scalar simpleTsn.detCom2.nwtt.tt[0].phyLayer.phyHeaderChecker droppedPacketLengths:sum 0
attr interpolationmode none
attr recordingmode sum
attr source packetLength(packetDropped)
attr title "dropped packet lengths, sum"
attr unit b
statistic simpleTsn.detCom2.nwtt.tt[0].phyLayer.phyHeaderChecker droppedPacketLengths:histogram
field count 0
field mean -nan
field stddev nan
field min nan
field max nan
field sum 0
field sqrsum 0
attr interpolationmode none
attr recordingmode histogram
attr source packetLength(packetDropped)
attr title "dropped packet lengths"
attr unit b
bin	-inf	0
bin	0	0
bin	1	0
scalar simpleTsn.detCom2.nwtt.tt[0].phyLayer.phyHeaderChecker flowDroppedPacketLengths:sum 0
attr interpolationmode none
attr recordingmode sum
attr source packetLength(demuxFlow(packetDropped))
attr title "flow specific dropped packet lengths, sum"
attr unit b
statistic simpleTsn.detCom2.nwtt.tt[0].phyLayer.phyHeaderChecker flowDroppedPacketLengths:histogram
field count 0
field mean -nan
field stddev nan
field min nan
field max nan
field sum 0
field sqrsum 0
attr interpolationmode none
attr recordingmode histogram
attr source packetLength(demuxFlow(packetDropped))
attr title "flow specific dropped packet lengths"
attr unit b
bin	-inf	0
bin	0	0
bin	1	0
par simpleTsn.detCom2.nwtt.tt[0].phyLayer.inboundEmitter typename "\"inet.protocolelement.common.PacketEmitter\""
par simpleTsn.detCom2.nwtt.tt[0].phyLayer.inboundEmitter displayStringTextFormat "\"processed %p pk (%l)\""
par simpleTsn.detCom2.nwtt.tt[0].phyLayer.inboundEmitter packetFilter "(omnetpp::cValueHolder)holder: \"*\""
par simpleTsn.detCom2.nwtt.tt[0].phyLayer.inboundEmitter direction "\"inbound\""
attr enum undefined,inbound,outbound
par simpleTsn.detCom2.nwtt.tt[0].phyLayer.inboundEmitter signalName "\"packetReceivedFromLower\""
scalar simpleTsn.detCom2.nwtt.tt[0].phyLayer.inboundEmitter outgoingPackets:count 0
attr recordingmode count
attr source "merge(packetPushedOut, packetPulledOut)"
attr title "outgoing packets, count"
attr unit pk
scalar simpleTsn.detCom2.nwtt.tt[0].phyLayer.inboundEmitter outgoingPacketLengths:sum 0
attr interpolationmode none
attr recordingmode sum
attr source "packetLength(merge(packetPushedOut, packetPulledOut))"
attr title "outgoing packet lengths, sum"
attr unit b
statistic simpleTsn.detCom2.nwtt.tt[0].phyLayer.inboundEmitter outgoingPacketLengths:histogram
field count 0
field mean -nan
field stddev nan
field min nan
field max nan
field sum 0
field sqrsum 0
attr interpolationmode none
attr recordingmode histogram
attr source "packetLength(merge(packetPushedOut, packetPulledOut))"
attr title "outgoing packet lengths"
attr unit b
bin	-inf	0
bin	0	0
bin	1	0
scalar simpleTsn.detCom2.nwtt.tt[0].phyLayer.inboundEmitter flowOutgoingPacketLengths:sum 0
attr interpolationmode none
attr recordingmode sum
attr source "packetLength(demuxFlow(merge(packetPushedOut, packetPulledOut)))"
attr title "flow specific outgoing packet lengths, sum"
attr unit b
statistic simpleTsn.detCom2.nwtt.tt[0].phyLayer.inboundEmitter flowOutgoingPacketLengths:histogram
field count 0
field mean -nan
field stddev nan
field min nan
field max nan
field sum 0
field sqrsum 0
attr interpolationmode none
attr recordingmode histogram
attr source "packetLength(demuxFlow(merge(packetPushedOut, packetPulledOut)))"
attr title "flow specific outgoing packet lengths"
attr unit b
bin	-inf	0
bin	0	0
bin	1	0
scalar simpleTsn.detCom2.nwtt.tt[0].phyLayer.inboundEmitter incomingPackets:count 0
attr recordingmode count
attr source "merge(packetPushedIn, packetPulledIn)"
attr title "incoming packets, count"
attr unit pk
scalar simpleTsn.detCom2.nwtt.tt[0].phyLayer.inboundEmitter incomingPacketLengths:sum 0
attr interpolationmode none
attr recordingmode sum
attr source "packetLength(merge(packetPushedIn, packetPulledIn))"
attr title "incoming packet lengths, sum"
attr unit b
statistic simpleTsn.detCom2.nwtt.tt[0].phyLayer.inboundEmitter incomingPacketLengths:histogram
field count 0
field mean -nan
field stddev nan
field min nan
field max nan
field sum 0
field sqrsum 0
attr interpolationmode none
attr recordingmode histogram
attr source "packetLength(merge(packetPushedIn, packetPulledIn))"
attr title "incoming packet lengths"
attr unit b
bin	-inf	0
bin	0	0
bin	1	0
scalar simpleTsn.detCom2.nwtt.tt[0].phyLayer.inboundEmitter flowIncomingPacketLengths:sum 0
attr interpolationmode none
attr recordingmode sum
attr source "packetLength(demuxFlow(merge(packetPushedIn, packetPulledIn)))"
attr title "flow specific incoming packet lengths, sum"
attr unit b
statistic simpleTsn.detCom2.nwtt.tt[0].phyLayer.inboundEmitter flowIncomingPacketLengths:histogram
field count 0
field mean -nan
field stddev nan
field min nan
field max nan
field sum 0
field sqrsum 0
attr interpolationmode none
attr recordingmode histogram
attr source "packetLength(demuxFlow(merge(packetPushedIn, packetPulledIn)))"
attr title "flow specific incoming packet lengths"
attr unit b
bin	-inf	0
bin	0	0
bin	1	0
par simpleTsn.detCom2.nwtt.tt[0].phyLayer.receiver typename "\"inet.protocolelement.transceiver.PacketReceiver\""
par simpleTsn.detCom2.nwtt.tt[0].phyLayer.receiver displayStringTextFormat "\"processed %p pk (%l)\""
par simpleTsn.detCom2.nwtt.tt[0].phyLayer.receiver datarate "inf bps"
attr unit bps
statistic simpleTsn.detCom2.nwtt.tt[0].phyLayer.receiver receptionTime:histogram
field count 0
field mean -nan
field stddev nan
field min nan
field max nan
field sum 0
field sqrsum 0
attr interpolationmode none
attr recordingmode histogram
attr source packetDuration(receptionEnded)
attr title "reception time"
attr unit s
bin	-inf	0
bin	0	0
bin	1	0
statistic simpleTsn.detCom2.nwtt.tt[0].phyLayer.receiver flowReceptionTime:histogram
field count 0
field mean -nan
field stddev nan
field min nan
field max nan
field sum 0
field sqrsum 0
attr interpolationmode none
attr recordingmode histogram
attr source packetDuration(demuxFlow(receptionEnded))
attr title "flow reception time"
attr unit s
bin	-inf	0
bin	0	0
bin	1	0
par simpleTsn.detCom2.nwtt.tt[0].phyLayer typename "\"inet.physicallayer.wired.ethernet.EthernetPhyLayer\""
par simpleTsn.detCom2.nwtt.tt[0].phyLayer bitrate this.bitrate
attr unit bps
par simpleTsn.detCom2.nwtt.tt[0] typename "\"d6g.devices.tsntranslator.TTInterface\""
par simpleTsn.detCom2.nwtt.tt[0] displayStringTextFormat "\"%a (%i)\\n%m\""
par simpleTsn.detCom2.nwtt.tt[0] recordPcap false
par simpleTsn.detCom2.nwtt.tt[0] numPcapRecorders 0
par simpleTsn.detCom2.nwtt.tt[0] protocol "\"ethernetmac\""
par simpleTsn.detCom2.nwtt.tt[0] broadcast true
par simpleTsn.detCom2.nwtt.tt[0] multicast true
par simpleTsn.detCom2.nwtt.tt[0] address "\"0A-AA-00-00-00-14\""
attr mutable ""
par simpleTsn.detCom2.nwtt.tt[0] bitrate "inf bps"
attr unit bps
par simpleTsn.detCom2.nwtt.tt[0] mtu 1500B
attr unit B
par simpleTsn.detCom2.nwtt.tt[0] interfaceTableModule "\"simpleTsn.detCom2.nwtt.interfaceTable\""
scalar simpleTsn.detCom2.nwtt.tt[0] packetDropInterfaceDown:count 0
attr interpolationmode none
attr recordingmode count
attr source packetDropReasonIsInterfaceDown(packetDropped)
attr title "packet drops: interface down, count"
scalar simpleTsn.detCom2.nwtt.tt[0] packetDropInterfaceDown:sum(packetBytes) 0
attr interpolationmode none
attr recordingmode sum(packetBytes)
attr source packetDropReasonIsInterfaceDown(packetDropped)
attr title "packet drops: interface down, sum(packetBytes)"
scalar simpleTsn.detCom2.nwtt.tt[0] packetDropNoCarrier:count 0
attr interpolationmode none
attr recordingmode count
attr source packetDropReasonIsNoCarrier(packetDropped)
attr title "packet drops: no carrier, count"
scalar simpleTsn.detCom2.nwtt.tt[0] packetDropNoCarrier:sum(packetBytes) 0
attr interpolationmode none
attr recordingmode sum(packetBytes)
attr source packetDropReasonIsNoCarrier(packetDropped)
attr title "packet drops: no carrier, sum(packetBytes)"
par simpleTsn.detCom2.nwtt typename "\"d6g.devices.tsntranslator.TsnTranslator\""
par simpleTsn.detCom2.nwtt recordPcap false
par simpleTsn.detCom2.nwtt numPcapRecorders 0
par simpleTsn.detCom2.nwtt numApps 0
par simpleTsn.detCom2.nwtt hasStatus false
par simpleTsn.detCom2.nwtt hasStp false
par simpleTsn.detCom2.nwtt hasGptp false
par simpleTsn.detCom2.nwtt hasCutthroughSwitching false
par simpleTsn.detCom2.nwtt fcsMode "\"declared\""
attr enum declared,computed
par simpleTsn.detCom2.nwtt spanningTreeProtocol "\"Stp\""
par simpleTsn.detCom2.nwtt numEthInterfaces 0
par simpleTsn.detCom2.nwtt hasTimeSynchronization false
par simpleTsn.detCom2.nwtt hasIngressTrafficFiltering false
par simpleTsn.detCom2.nwtt hasEgressTrafficShaping true
par simpleTsn.detCom2.nwtt hasStreamRedundancy false
par simpleTsn.detCom2.nwtt hasIncomingStreams true
par simpleTsn.detCom2.nwtt hasOutgoingStreams true
par simpleTsn.detCom2.nwtt hasFramePreemption false
par simpleTsn.detCom2.nwtt numTtInterfaces 0
par simpleTsn.detCom2.nwtt isDstt false
par simpleTsn.detCom2.nwtt delayUplink 0s
attr mutable ""
attr unit s
par simpleTsn.detCom2.nwtt delayDownlink 0s
attr mutable ""
attr unit s
par simpleTsn.detCom2 typename "\"d6g.devices.DetCom\""
par simpleTsn.detCom2 numUEs 0
par simpleTsn.detCom2 delayConfig "<delays>...</delays> at /simulations/6GDetCom_Simulator/simulations/simpleTsn//delays2.xml:1"
par simpleTsn.detCom2 name "\"\""
par simpleTsn typename "\"d6g.simulations.simpleTsn.simpleTsn\""
par simpleTsn recordPcap false
par simpleTsn numPcapRecorders 0
par simpleTsn hasGlobalArp true

