version 3
run General-0-20250522-12:32:16-4434
attr configname General
attr datetime 20250522-12:32:16
attr datetimef 20250522-123216
attr experiment General
attr inifile omnetpp.ini
attr iterationvars ""
attr iterationvarsd ""
attr iterationvarsf ""
attr measurement ""
attr network simpleTsn
attr processid 4434
attr repetition 0
attr replication #0
attr resultdir results
attr runnumber 0
attr seedset 0
config image-path ../../../inet/images
config sim-time-limit 4s
config description "General configuration"
config network simpleTsn
config **.displayGateSchedules false
config **.gateScheduleVisualizer.height 14
config **.gateScheduleVisualizer.placementHint "\"bottom\""
config *.scenarioManager.script "xmldoc(\"scenario.xml\")"
config *.histogramContainer.histograms "{Uplink: \"../../../deterministic6g_data/PD-Wireless-5G-1/s1-UL_wall.xml\", Downlink: \"../../../deterministic6g_data/PD-Wireless-5G-1/s10-DL_wall.xml\"}"
config *.detCom.delayConfig "xmldoc(\"delays_example.xml\")"
config *.device1.numApps 3
config *.device1.app[0].typename SimpleUdpSourceApp
config *.device1.app[0].display-name stream1
config *.device1.app[0].streamId "\"1\""
config *.device1.app[0].max_latency 100.0
config *.device1.app[0].priority 0
config *.device1.app[0].gamma 0
config *.device1.app[0].max_jitter 10
config *.device1.app[0].io.destAddress "\"device2\""
config *.device1.app[0].io.destPort 1001
config *.device1.app[0].source.packetLength "1000B - 54B"
config *.device1.app[0].source.productionInterval 200ms
config *.device1.app[0].source.initialProductionOffset 1s
config *.device1.app[1].typename SimpleUdpSinkApp
config *.device1.app[1].io.localPort 1002
config *.device1.app[2].typename SimpleUdpSourceApp
config *.device1.app[2].display-name stream3
config *.device1.app[2].streamId "\"3\""
config *.device1.app[2].max_latency 100.0
config *.device1.app[2].priority 0
config *.device1.app[2].gamma 0
config *.device1.app[2].max_jitter 10
config *.device1.app[2].io.destAddress "\"device2\""
config *.device1.app[2].io.destPort 1003
config *.device1.app[2].source.packetLength "1000B - 54B"
config *.device1.app[2].source.productionInterval 50ms
config *.device1.app[2].source.initialProductionOffset 20s
config *.device2.numApps 3
config *.device2.app[0].typename SimpleUdpSinkApp
config *.device2.app[0].io.localPort 1001
config *.device2.app[1].typename SimpleUdpSourceApp
config *.device2.app[1].display-name stream2
config *.device2.app[1].streamId "\"2\""
config *.device2.app[1].max_latency 100.0
config *.device2.app[1].priority 0
config *.device2.app[1].gamma 0
config *.device2.app[1].max_jitter 10
config *.device2.app[1].io.destAddress "\"device1\""
config *.device2.app[1].io.destPort 1002
config *.device2.app[1].source.packetLength "1000B - 54B"
config *.device2.app[1].source.productionInterval 100ms
config *.device2.app[1].source.initialProductionOffset 30s
config *.device2.app[2].typename SimpleUdpSinkApp
config *.device2.app[2].io.localPort 1003
config *.device1.app[0].source.streamingEnabled false
config *.device1.app[2].source.streamingEnabled false
config *.device2.app[1].source.streamingEnabled false
config **.streamIdentifier.identifier.mapping "[{stream: \"stream1\", packetFilter: expr(udp.destPort == 1001)}, \n\t\t\t\t\t\t\t\t\t\t  {stream: \"stream2\", packetFilter: expr(udp.destPort == 1002)},\n\t\t\t\t\t\t\t\t\t\t  {stream: \"stream3\", packetFilter: expr(udp.destPort == 1003)}]"
config **.streamCoder.*.mapping "[{stream: \"stream1\", pcp: 4, vlan: 1},\n\t\t\t\t\t\t\t{stream: \"stream2\", pcp: 4, vlan: 5},\n\t\t\t\t\t\t\t{stream: \"stream3\", pcp: 4, vlan: 5}]"
config *.bridge*.bridging.directionReverser.reverser.excludeEncapsulationProtocols "[\"ieee8021qctag\"]"
config *.bridge*.ieee8021q.qTagHeaderChecker.vlanIdFilter [1,5]
config *.bridge*.eth[*].macLayer.queue.*[0].display-name "best effort"
config *.bridge*.eth[*].macLayer.queue.*[1].display-name video
config *.bridge*.eth[*].macLayer.queue.*[2].display-name control
config *.bridge*.eth[*].macLayer.queue.*[3].display-name p3
config *.bridge*.eth[*].macLayer.queue.*[4].display-name p4
config *.bridge*.eth[*].macLayer.queue.*[5].display-name p5
config *.bridge*.eth[*].macLayer.queue.*[6].display-name p6
config *.bridge*.eth[*].macLayer.queue.*[7].display-name p7
config *.macForwardingTableConfigurator.typename ""
config **.bridge1.macTable.forwardingTable "[{address: \"device2\", vlan: 1, interface: \"eth2\"},{address: \"device1\", vlan: 5, interface: \"eth0\"},{address: \"device2\", vlan: 5, interface: \"eth1\"}]"
config **.bridge2.macTable.forwardingTable "[{address: \"device2\", vlan: 1, interface: \"eth1\"},{address: \"device1\", vlan: 5, interface: \"eth0\"},{address: \"device2\", vlan: 5, interface: \"eth1\"}]"
config **.bridge3.macTable.forwardingTable "[{address: \"device2\", vlan: 1, interface: \"eth1\"}]"
config *.tsnController.gateScheduleConfigurator.typename wTSNGateScheduleConfigurator
config *.tsnController.gateScheduleConfigurator.gateCycleDuration 1ms
config *.tsnController.gateScheduleConfigurator.configuration "[{pcp: 0, gateIndex:2, application: \"app[0]\", source: \"device1\", destination: \"device2\", packetLength: 1000B + 58B, packetInterval: 500us, maxLatency: 500us}]"

vector 0 simpleTsn.bridge1.eth[0].phyLayer.interFrameGapInserter interpacketGap:vector ETV
attr interpolationmode sample-hold
attr recordingmode vector
attr source "count(interpacketGapStarted) - count(interpacketGapEnded)"
attr title "interpacket gap state"
attr type int
vector 1 simpleTsn.bridge1.eth[0].phyLayer.transmitter transmitting:vector ETV
attr interpolationmode sample-hold
attr recordingmode vector
attr source "count(transmissionStarted) - count(transmissionEnded)"
attr title "transmitting state"
attr type int
vector 2 simpleTsn.bridge1.eth[1].phyLayer.interFrameGapInserter interpacketGap:vector ETV
attr interpolationmode sample-hold
attr recordingmode vector
attr source "count(interpacketGapStarted) - count(interpacketGapEnded)"
attr title "interpacket gap state"
attr type int
vector 3 simpleTsn.bridge1.eth[1].phyLayer.transmitter transmitting:vector ETV
attr interpolationmode sample-hold
attr recordingmode vector
attr source "count(transmissionStarted) - count(transmissionEnded)"
attr title "transmitting state"
attr type int
vector 4 simpleTsn.bridge1.eth[2].phyLayer.interFrameGapInserter interpacketGap:vector ETV
attr interpolationmode sample-hold
attr recordingmode vector
attr source "count(interpacketGapStarted) - count(interpacketGapEnded)"
attr title "interpacket gap state"
attr type int
vector 5 simpleTsn.bridge1.eth[2].phyLayer.transmitter transmitting:vector ETV
attr interpolationmode sample-hold
attr recordingmode vector
attr source "count(transmissionStarted) - count(transmissionEnded)"
attr title "transmitting state"
attr type int
vector 6 simpleTsn.bridge2.eth[0].phyLayer.interFrameGapInserter interpacketGap:vector ETV
attr interpolationmode sample-hold
attr recordingmode vector
attr source "count(interpacketGapStarted) - count(interpacketGapEnded)"
attr title "interpacket gap state"
attr type int
vector 7 simpleTsn.bridge2.eth[0].phyLayer.transmitter transmitting:vector ETV
attr interpolationmode sample-hold
attr recordingmode vector
attr source "count(transmissionStarted) - count(transmissionEnded)"
attr title "transmitting state"
attr type int
vector 8 simpleTsn.bridge2.eth[1].phyLayer.interFrameGapInserter interpacketGap:vector ETV
attr interpolationmode sample-hold
attr recordingmode vector
attr source "count(interpacketGapStarted) - count(interpacketGapEnded)"
attr title "interpacket gap state"
attr type int
vector 9 simpleTsn.bridge2.eth[1].phyLayer.transmitter transmitting:vector ETV
attr interpolationmode sample-hold
attr recordingmode vector
attr source "count(transmissionStarted) - count(transmissionEnded)"
attr title "transmitting state"
attr type int
vector 10 simpleTsn.bridge2.eth[2].phyLayer.interFrameGapInserter interpacketGap:vector ETV
attr interpolationmode sample-hold
attr recordingmode vector
attr source "count(interpacketGapStarted) - count(interpacketGapEnded)"
attr title "interpacket gap state"
attr type int
vector 11 simpleTsn.bridge2.eth[2].phyLayer.transmitter transmitting:vector ETV
attr interpolationmode sample-hold
attr recordingmode vector
attr source "count(transmissionStarted) - count(transmissionEnded)"
attr title "transmitting state"
attr type int
vector 12 simpleTsn.bridge3.eth[0].phyLayer.interFrameGapInserter interpacketGap:vector ETV
attr interpolationmode sample-hold
attr recordingmode vector
attr source "count(interpacketGapStarted) - count(interpacketGapEnded)"
attr title "interpacket gap state"
attr type int
vector 13 simpleTsn.bridge3.eth[0].phyLayer.transmitter transmitting:vector ETV
attr interpolationmode sample-hold
attr recordingmode vector
attr source "count(transmissionStarted) - count(transmissionEnded)"
attr title "transmitting state"
attr type int
vector 14 simpleTsn.bridge3.eth[1].phyLayer.interFrameGapInserter interpacketGap:vector ETV
attr interpolationmode sample-hold
attr recordingmode vector
attr source "count(interpacketGapStarted) - count(interpacketGapEnded)"
attr title "interpacket gap state"
attr type int
vector 15 simpleTsn.bridge3.eth[1].phyLayer.transmitter transmitting:vector ETV
attr interpolationmode sample-hold
attr recordingmode vector
attr source "count(transmissionStarted) - count(transmissionEnded)"
attr title "transmitting state"
attr type int
vector 16 simpleTsn.device1.eth[0].phyLayer.interFrameGapInserter interpacketGap:vector ETV
attr interpolationmode sample-hold
attr recordingmode vector
attr source "count(interpacketGapStarted) - count(interpacketGapEnded)"
attr title "interpacket gap state"
attr type int
vector 17 simpleTsn.device1.eth[0].phyLayer.transmitter transmitting:vector ETV
attr interpolationmode sample-hold
attr recordingmode vector
attr source "count(transmissionStarted) - count(transmissionEnded)"
attr title "transmitting state"
attr type int
vector 18 simpleTsn.device1.udp passedUpPk:vector(count) ETV
attr interpolationmode none
attr recordingmode vector(count)
attr source packetSentToUpper
attr title "packets passed up, count"
vector 19 simpleTsn.device1.udp droppedPkWrongPort:vector(count) ETV
attr interpolationmode none
attr recordingmode vector(count)
attr source packetDropReasonIsNoPortFound(packetDropped)
attr title "packets dropped (wrong port), count"
vector 20 simpleTsn.device1.udp droppedPkBadChecksum:vector(count) ETV
attr interpolationmode none
attr recordingmode vector(count)
attr source packetDropReasonIsIncorrectlyReceived(packetDropped)
attr title "packets dropped (checksum error), count"
vector 21 simpleTsn.device2.eth[0].phyLayer.interFrameGapInserter interpacketGap:vector ETV
attr interpolationmode sample-hold
attr recordingmode vector
attr source "count(interpacketGapStarted) - count(interpacketGapEnded)"
attr title "interpacket gap state"
attr type int
vector 22 simpleTsn.device2.eth[0].phyLayer.transmitter transmitting:vector ETV
attr interpolationmode sample-hold
attr recordingmode vector
attr source "count(transmissionStarted) - count(transmissionEnded)"
attr title "transmitting state"
attr type int
vector 23 simpleTsn.device2.udp passedUpPk:vector(count) ETV
attr interpolationmode none
attr recordingmode vector(count)
attr source packetSentToUpper
attr title "packets passed up, count"
vector 24 simpleTsn.device2.udp droppedPkWrongPort:vector(count) ETV
attr interpolationmode none
attr recordingmode vector(count)
attr source packetDropReasonIsNoPortFound(packetDropped)
attr title "packets dropped (wrong port), count"
vector 25 simpleTsn.device2.udp droppedPkBadChecksum:vector(count) ETV
attr interpolationmode none
attr recordingmode vector(count)
attr source packetDropReasonIsIncorrectlyReceived(packetDropped)
attr title "packets dropped (checksum error), count"
vector 26 simpleTsn.detCom.dstt[0].eth[0].phyLayer.interFrameGapInserter interpacketGap:vector ETV
attr interpolationmode sample-hold
attr recordingmode vector
attr source "count(interpacketGapStarted) - count(interpacketGapEnded)"
attr title "interpacket gap state"
attr type int
vector 27 simpleTsn.detCom.dstt[0].eth[0].phyLayer.transmitter transmitting:vector ETV
attr interpolationmode sample-hold
attr recordingmode vector
attr source "count(transmissionStarted) - count(transmissionEnded)"
attr title "transmitting state"
attr type int
vector 28 simpleTsn.detCom.dstt[0].tt[0].phyLayer.interFrameGapInserter interpacketGap:vector ETV
attr interpolationmode sample-hold
attr recordingmode vector
attr source "count(interpacketGapStarted) - count(interpacketGapEnded)"
attr title "interpacket gap state"
attr type int
vector 29 simpleTsn.detCom.dstt[0].tt[0].phyLayer.transmitter transmitting:vector ETV
attr interpolationmode sample-hold
attr recordingmode vector
attr source "count(transmissionStarted) - count(transmissionEnded)"
attr title "transmitting state"
attr type int
vector 30 simpleTsn.detCom.nwtt.eth[0].phyLayer.interFrameGapInserter interpacketGap:vector ETV
attr interpolationmode sample-hold
attr recordingmode vector
attr source "count(interpacketGapStarted) - count(interpacketGapEnded)"
attr title "interpacket gap state"
attr type int
vector 31 simpleTsn.detCom.nwtt.eth[0].phyLayer.transmitter transmitting:vector ETV
attr interpolationmode sample-hold
attr recordingmode vector
attr source "count(transmissionStarted) - count(transmissionEnded)"
attr title "transmitting state"
attr type int
vector 32 simpleTsn.detCom.nwtt.tt[0].phyLayer.interFrameGapInserter interpacketGap:vector ETV
attr interpolationmode sample-hold
attr recordingmode vector
attr source "count(interpacketGapStarted) - count(interpacketGapEnded)"
attr title "interpacket gap state"
attr type int
vector 33 simpleTsn.detCom.nwtt.tt[0].phyLayer.transmitter transmitting:vector ETV
attr interpolationmode sample-hold
attr recordingmode vector
attr source "count(transmissionStarted) - count(transmissionEnded)"
attr title "transmitting state"
attr type int
vector 34 simpleTsn.bridge1.eth[0].macLayer.queue.transmissionGate[0] gateState:vector ETV
attr enum CLOSED,OPEN
attr interpolationmode sample-hold
attr moduledisplaypath "simpleTsn.bridge1.eth[0].macLayer.queue.best effort"
attr recordingmode vector
attr source gateStateChanged
attr title "gate state"
attr type enum
vector 35 simpleTsn.bridge1.eth[0].macLayer.queue.transmissionGate[0] guardBandState:vector ETV
attr enum ON,OFF
attr interpolationmode sample-hold
attr moduledisplaypath "simpleTsn.bridge1.eth[0].macLayer.queue.best effort"
attr recordingmode vector
attr source guardBandStateChanged
attr title "guard band state"
attr type enum
vector 36 simpleTsn.bridge1.eth[0].macLayer.queue.transmissionGate[1] gateState:vector ETV
attr enum CLOSED,OPEN
attr interpolationmode sample-hold
attr moduledisplaypath simpleTsn.bridge1.eth[0].macLayer.queue.video
attr recordingmode vector
attr source gateStateChanged
attr title "gate state"
attr type enum
vector 37 simpleTsn.bridge1.eth[0].macLayer.queue.transmissionGate[1] guardBandState:vector ETV
attr enum ON,OFF
attr interpolationmode sample-hold
attr moduledisplaypath simpleTsn.bridge1.eth[0].macLayer.queue.video
attr recordingmode vector
attr source guardBandStateChanged
attr title "guard band state"
attr type enum
vector 38 simpleTsn.bridge1.eth[0].macLayer.queue.transmissionGate[2] gateState:vector ETV
attr enum CLOSED,OPEN
attr interpolationmode sample-hold
attr moduledisplaypath simpleTsn.bridge1.eth[0].macLayer.queue.control
attr recordingmode vector
attr source gateStateChanged
attr title "gate state"
attr type enum
vector 39 simpleTsn.bridge1.eth[0].macLayer.queue.transmissionGate[2] guardBandState:vector ETV
attr enum ON,OFF
attr interpolationmode sample-hold
attr moduledisplaypath simpleTsn.bridge1.eth[0].macLayer.queue.control
attr recordingmode vector
attr source guardBandStateChanged
attr title "guard band state"
attr type enum
vector 40 simpleTsn.bridge1.eth[0].macLayer.queue.transmissionGate[3] gateState:vector ETV
attr enum CLOSED,OPEN
attr interpolationmode sample-hold
attr moduledisplaypath simpleTsn.bridge1.eth[0].macLayer.queue.p3
attr recordingmode vector
attr source gateStateChanged
attr title "gate state"
attr type enum
vector 41 simpleTsn.bridge1.eth[0].macLayer.queue.transmissionGate[3] guardBandState:vector ETV
attr enum ON,OFF
attr interpolationmode sample-hold
attr moduledisplaypath simpleTsn.bridge1.eth[0].macLayer.queue.p3
attr recordingmode vector
attr source guardBandStateChanged
attr title "guard band state"
attr type enum
vector 42 simpleTsn.bridge1.eth[0].macLayer.queue.transmissionGate[4] gateState:vector ETV
attr enum CLOSED,OPEN
attr interpolationmode sample-hold
attr moduledisplaypath simpleTsn.bridge1.eth[0].macLayer.queue.p4
attr recordingmode vector
attr source gateStateChanged
attr title "gate state"
attr type enum
vector 43 simpleTsn.bridge1.eth[0].macLayer.queue.transmissionGate[4] guardBandState:vector ETV
attr enum ON,OFF
attr interpolationmode sample-hold
attr moduledisplaypath simpleTsn.bridge1.eth[0].macLayer.queue.p4
attr recordingmode vector
attr source guardBandStateChanged
attr title "guard band state"
attr type enum
vector 44 simpleTsn.bridge1.eth[0].macLayer.queue.transmissionGate[5] gateState:vector ETV
attr enum CLOSED,OPEN
attr interpolationmode sample-hold
attr moduledisplaypath simpleTsn.bridge1.eth[0].macLayer.queue.p5
attr recordingmode vector
attr source gateStateChanged
attr title "gate state"
attr type enum
vector 45 simpleTsn.bridge1.eth[0].macLayer.queue.transmissionGate[5] guardBandState:vector ETV
attr enum ON,OFF
attr interpolationmode sample-hold
attr moduledisplaypath simpleTsn.bridge1.eth[0].macLayer.queue.p5
attr recordingmode vector
attr source guardBandStateChanged
attr title "guard band state"
attr type enum
vector 46 simpleTsn.bridge1.eth[0].macLayer.queue.transmissionGate[6] gateState:vector ETV
attr enum CLOSED,OPEN
attr interpolationmode sample-hold
attr moduledisplaypath simpleTsn.bridge1.eth[0].macLayer.queue.p6
attr recordingmode vector
attr source gateStateChanged
attr title "gate state"
attr type enum
vector 47 simpleTsn.bridge1.eth[0].macLayer.queue.transmissionGate[6] guardBandState:vector ETV
attr enum ON,OFF
attr interpolationmode sample-hold
attr moduledisplaypath simpleTsn.bridge1.eth[0].macLayer.queue.p6
attr recordingmode vector
attr source guardBandStateChanged
attr title "guard band state"
attr type enum
vector 48 simpleTsn.bridge1.eth[0].macLayer.queue.transmissionGate[7] gateState:vector ETV
attr enum CLOSED,OPEN
attr interpolationmode sample-hold
attr moduledisplaypath simpleTsn.bridge1.eth[0].macLayer.queue.p7
attr recordingmode vector
attr source gateStateChanged
attr title "gate state"
attr type enum
vector 49 simpleTsn.bridge1.eth[0].macLayer.queue.transmissionGate[7] guardBandState:vector ETV
attr enum ON,OFF
attr interpolationmode sample-hold
attr moduledisplaypath simpleTsn.bridge1.eth[0].macLayer.queue.p7
attr recordingmode vector
attr source guardBandStateChanged
attr title "guard band state"
attr type enum
vector 50 simpleTsn.bridge1.eth[1].macLayer.queue.transmissionGate[0] gateState:vector ETV
attr enum CLOSED,OPEN
attr interpolationmode sample-hold
attr moduledisplaypath "simpleTsn.bridge1.eth[1].macLayer.queue.best effort"
attr recordingmode vector
attr source gateStateChanged
attr title "gate state"
attr type enum
vector 51 simpleTsn.bridge1.eth[1].macLayer.queue.transmissionGate[0] guardBandState:vector ETV
attr enum ON,OFF
attr interpolationmode sample-hold
attr moduledisplaypath "simpleTsn.bridge1.eth[1].macLayer.queue.best effort"
attr recordingmode vector
attr source guardBandStateChanged
attr title "guard band state"
attr type enum
vector 52 simpleTsn.bridge1.eth[1].macLayer.queue.transmissionGate[1] gateState:vector ETV
attr enum CLOSED,OPEN
attr interpolationmode sample-hold
attr moduledisplaypath simpleTsn.bridge1.eth[1].macLayer.queue.video
attr recordingmode vector
attr source gateStateChanged
attr title "gate state"
attr type enum
vector 53 simpleTsn.bridge1.eth[1].macLayer.queue.transmissionGate[1] guardBandState:vector ETV
attr enum ON,OFF
attr interpolationmode sample-hold
attr moduledisplaypath simpleTsn.bridge1.eth[1].macLayer.queue.video
attr recordingmode vector
attr source guardBandStateChanged
attr title "guard band state"
attr type enum
vector 54 simpleTsn.bridge1.eth[1].macLayer.queue.transmissionGate[2] gateState:vector ETV
attr enum CLOSED,OPEN
attr interpolationmode sample-hold
attr moduledisplaypath simpleTsn.bridge1.eth[1].macLayer.queue.control
attr recordingmode vector
attr source gateStateChanged
attr title "gate state"
attr type enum
vector 55 simpleTsn.bridge1.eth[1].macLayer.queue.transmissionGate[2] guardBandState:vector ETV
attr enum ON,OFF
attr interpolationmode sample-hold
attr moduledisplaypath simpleTsn.bridge1.eth[1].macLayer.queue.control
attr recordingmode vector
attr source guardBandStateChanged
attr title "guard band state"
attr type enum
vector 56 simpleTsn.bridge1.eth[1].macLayer.queue.transmissionGate[3] gateState:vector ETV
attr enum CLOSED,OPEN
attr interpolationmode sample-hold
attr moduledisplaypath simpleTsn.bridge1.eth[1].macLayer.queue.p3
attr recordingmode vector
attr source gateStateChanged
attr title "gate state"
attr type enum
vector 57 simpleTsn.bridge1.eth[1].macLayer.queue.transmissionGate[3] guardBandState:vector ETV
attr enum ON,OFF
attr interpolationmode sample-hold
attr moduledisplaypath simpleTsn.bridge1.eth[1].macLayer.queue.p3
attr recordingmode vector
attr source guardBandStateChanged
attr title "guard band state"
attr type enum
vector 58 simpleTsn.bridge1.eth[1].macLayer.queue.transmissionGate[4] gateState:vector ETV
attr enum CLOSED,OPEN
attr interpolationmode sample-hold
attr moduledisplaypath simpleTsn.bridge1.eth[1].macLayer.queue.p4
attr recordingmode vector
attr source gateStateChanged
attr title "gate state"
attr type enum
vector 59 simpleTsn.bridge1.eth[1].macLayer.queue.transmissionGate[4] guardBandState:vector ETV
attr enum ON,OFF
attr interpolationmode sample-hold
attr moduledisplaypath simpleTsn.bridge1.eth[1].macLayer.queue.p4
attr recordingmode vector
attr source guardBandStateChanged
attr title "guard band state"
attr type enum
vector 60 simpleTsn.bridge1.eth[1].macLayer.queue.transmissionGate[5] gateState:vector ETV
attr enum CLOSED,OPEN
attr interpolationmode sample-hold
attr moduledisplaypath simpleTsn.bridge1.eth[1].macLayer.queue.p5
attr recordingmode vector
attr source gateStateChanged
attr title "gate state"
attr type enum
vector 61 simpleTsn.bridge1.eth[1].macLayer.queue.transmissionGate[5] guardBandState:vector ETV
attr enum ON,OFF
attr interpolationmode sample-hold
attr moduledisplaypath simpleTsn.bridge1.eth[1].macLayer.queue.p5
attr recordingmode vector
attr source guardBandStateChanged
attr title "guard band state"
attr type enum
vector 62 simpleTsn.bridge1.eth[1].macLayer.queue.transmissionGate[6] gateState:vector ETV
attr enum CLOSED,OPEN
attr interpolationmode sample-hold
attr moduledisplaypath simpleTsn.bridge1.eth[1].macLayer.queue.p6
attr recordingmode vector
attr source gateStateChanged
attr title "gate state"
attr type enum
vector 63 simpleTsn.bridge1.eth[1].macLayer.queue.transmissionGate[6] guardBandState:vector ETV
attr enum ON,OFF
attr interpolationmode sample-hold
attr moduledisplaypath simpleTsn.bridge1.eth[1].macLayer.queue.p6
attr recordingmode vector
attr source guardBandStateChanged
attr title "guard band state"
attr type enum
vector 64 simpleTsn.bridge1.eth[1].macLayer.queue.transmissionGate[7] gateState:vector ETV
attr enum CLOSED,OPEN
attr interpolationmode sample-hold
attr moduledisplaypath simpleTsn.bridge1.eth[1].macLayer.queue.p7
attr recordingmode vector
attr source gateStateChanged
attr title "gate state"
attr type enum
vector 65 simpleTsn.bridge1.eth[1].macLayer.queue.transmissionGate[7] guardBandState:vector ETV
attr enum ON,OFF
attr interpolationmode sample-hold
attr moduledisplaypath simpleTsn.bridge1.eth[1].macLayer.queue.p7
attr recordingmode vector
attr source guardBandStateChanged
attr title "guard band state"
attr type enum
vector 66 simpleTsn.bridge1.eth[2].macLayer.queue.transmissionGate[0] gateState:vector ETV
attr enum CLOSED,OPEN
attr interpolationmode sample-hold
attr moduledisplaypath "simpleTsn.bridge1.eth[2].macLayer.queue.best effort"
attr recordingmode vector
attr source gateStateChanged
attr title "gate state"
attr type enum
vector 67 simpleTsn.bridge1.eth[2].macLayer.queue.transmissionGate[0] guardBandState:vector ETV
attr enum ON,OFF
attr interpolationmode sample-hold
attr moduledisplaypath "simpleTsn.bridge1.eth[2].macLayer.queue.best effort"
attr recordingmode vector
attr source guardBandStateChanged
attr title "guard band state"
attr type enum
vector 68 simpleTsn.bridge1.eth[2].macLayer.queue.transmissionGate[1] gateState:vector ETV
attr enum CLOSED,OPEN
attr interpolationmode sample-hold
attr moduledisplaypath simpleTsn.bridge1.eth[2].macLayer.queue.video
attr recordingmode vector
attr source gateStateChanged
attr title "gate state"
attr type enum
vector 69 simpleTsn.bridge1.eth[2].macLayer.queue.transmissionGate[1] guardBandState:vector ETV
attr enum ON,OFF
attr interpolationmode sample-hold
attr moduledisplaypath simpleTsn.bridge1.eth[2].macLayer.queue.video
attr recordingmode vector
attr source guardBandStateChanged
attr title "guard band state"
attr type enum
vector 70 simpleTsn.bridge1.eth[2].macLayer.queue.transmissionGate[2] gateState:vector ETV
attr enum CLOSED,OPEN
attr interpolationmode sample-hold
attr moduledisplaypath simpleTsn.bridge1.eth[2].macLayer.queue.control
attr recordingmode vector
attr source gateStateChanged
attr title "gate state"
attr type enum
vector 71 simpleTsn.bridge1.eth[2].macLayer.queue.transmissionGate[2] guardBandState:vector ETV
attr enum ON,OFF
attr interpolationmode sample-hold
attr moduledisplaypath simpleTsn.bridge1.eth[2].macLayer.queue.control
attr recordingmode vector
attr source guardBandStateChanged
attr title "guard band state"
attr type enum
vector 72 simpleTsn.bridge1.eth[2].macLayer.queue.transmissionGate[3] gateState:vector ETV
attr enum CLOSED,OPEN
attr interpolationmode sample-hold
attr moduledisplaypath simpleTsn.bridge1.eth[2].macLayer.queue.p3
attr recordingmode vector
attr source gateStateChanged
attr title "gate state"
attr type enum
vector 73 simpleTsn.bridge1.eth[2].macLayer.queue.transmissionGate[3] guardBandState:vector ETV
attr enum ON,OFF
attr interpolationmode sample-hold
attr moduledisplaypath simpleTsn.bridge1.eth[2].macLayer.queue.p3
attr recordingmode vector
attr source guardBandStateChanged
attr title "guard band state"
attr type enum
vector 74 simpleTsn.bridge1.eth[2].macLayer.queue.transmissionGate[4] gateState:vector ETV
attr enum CLOSED,OPEN
attr interpolationmode sample-hold
attr moduledisplaypath simpleTsn.bridge1.eth[2].macLayer.queue.p4
attr recordingmode vector
attr source gateStateChanged
attr title "gate state"
attr type enum
vector 75 simpleTsn.bridge1.eth[2].macLayer.queue.transmissionGate[4] guardBandState:vector ETV
attr enum ON,OFF
attr interpolationmode sample-hold
attr moduledisplaypath simpleTsn.bridge1.eth[2].macLayer.queue.p4
attr recordingmode vector
attr source guardBandStateChanged
attr title "guard band state"
attr type enum
vector 76 simpleTsn.bridge1.eth[2].macLayer.queue.transmissionGate[5] gateState:vector ETV
attr enum CLOSED,OPEN
attr interpolationmode sample-hold
attr moduledisplaypath simpleTsn.bridge1.eth[2].macLayer.queue.p5
attr recordingmode vector
attr source gateStateChanged
attr title "gate state"
attr type enum
vector 77 simpleTsn.bridge1.eth[2].macLayer.queue.transmissionGate[5] guardBandState:vector ETV
attr enum ON,OFF
attr interpolationmode sample-hold
attr moduledisplaypath simpleTsn.bridge1.eth[2].macLayer.queue.p5
attr recordingmode vector
attr source guardBandStateChanged
attr title "guard band state"
attr type enum
vector 78 simpleTsn.bridge1.eth[2].macLayer.queue.transmissionGate[6] gateState:vector ETV
attr enum CLOSED,OPEN
attr interpolationmode sample-hold
attr moduledisplaypath simpleTsn.bridge1.eth[2].macLayer.queue.p6
attr recordingmode vector
attr source gateStateChanged
attr title "gate state"
attr type enum
vector 79 simpleTsn.bridge1.eth[2].macLayer.queue.transmissionGate[6] guardBandState:vector ETV
attr enum ON,OFF
attr interpolationmode sample-hold
attr moduledisplaypath simpleTsn.bridge1.eth[2].macLayer.queue.p6
attr recordingmode vector
attr source guardBandStateChanged
attr title "guard band state"
attr type enum
vector 80 simpleTsn.bridge1.eth[2].macLayer.queue.transmissionGate[7] gateState:vector ETV
attr enum CLOSED,OPEN
attr interpolationmode sample-hold
attr moduledisplaypath simpleTsn.bridge1.eth[2].macLayer.queue.p7
attr recordingmode vector
attr source gateStateChanged
attr title "gate state"
attr type enum
vector 81 simpleTsn.bridge1.eth[2].macLayer.queue.transmissionGate[7] guardBandState:vector ETV
attr enum ON,OFF
attr interpolationmode sample-hold
attr moduledisplaypath simpleTsn.bridge1.eth[2].macLayer.queue.p7
attr recordingmode vector
attr source guardBandStateChanged
attr title "guard band state"
attr type enum
vector 82 simpleTsn.bridge2.eth[0].macLayer.queue.transmissionGate[0] gateState:vector ETV
attr enum CLOSED,OPEN
attr interpolationmode sample-hold
attr moduledisplaypath "simpleTsn.bridge2.eth[0].macLayer.queue.best effort"
attr recordingmode vector
attr source gateStateChanged
attr title "gate state"
attr type enum
vector 83 simpleTsn.bridge2.eth[0].macLayer.queue.transmissionGate[0] guardBandState:vector ETV
attr enum ON,OFF
attr interpolationmode sample-hold
attr moduledisplaypath "simpleTsn.bridge2.eth[0].macLayer.queue.best effort"
attr recordingmode vector
attr source guardBandStateChanged
attr title "guard band state"
attr type enum
vector 84 simpleTsn.bridge2.eth[0].macLayer.queue.transmissionGate[1] gateState:vector ETV
attr enum CLOSED,OPEN
attr interpolationmode sample-hold
attr moduledisplaypath simpleTsn.bridge2.eth[0].macLayer.queue.video
attr recordingmode vector
attr source gateStateChanged
attr title "gate state"
attr type enum
vector 85 simpleTsn.bridge2.eth[0].macLayer.queue.transmissionGate[1] guardBandState:vector ETV
attr enum ON,OFF
attr interpolationmode sample-hold
attr moduledisplaypath simpleTsn.bridge2.eth[0].macLayer.queue.video
attr recordingmode vector
attr source guardBandStateChanged
attr title "guard band state"
attr type enum
vector 86 simpleTsn.bridge2.eth[0].macLayer.queue.transmissionGate[2] gateState:vector ETV
attr enum CLOSED,OPEN
attr interpolationmode sample-hold
attr moduledisplaypath simpleTsn.bridge2.eth[0].macLayer.queue.control
attr recordingmode vector
attr source gateStateChanged
attr title "gate state"
attr type enum
vector 87 simpleTsn.bridge2.eth[0].macLayer.queue.transmissionGate[2] guardBandState:vector ETV
attr enum ON,OFF
attr interpolationmode sample-hold
attr moduledisplaypath simpleTsn.bridge2.eth[0].macLayer.queue.control
attr recordingmode vector
attr source guardBandStateChanged
attr title "guard band state"
attr type enum
vector 88 simpleTsn.bridge2.eth[0].macLayer.queue.transmissionGate[3] gateState:vector ETV
attr enum CLOSED,OPEN
attr interpolationmode sample-hold
attr moduledisplaypath simpleTsn.bridge2.eth[0].macLayer.queue.p3
attr recordingmode vector
attr source gateStateChanged
attr title "gate state"
attr type enum
vector 89 simpleTsn.bridge2.eth[0].macLayer.queue.transmissionGate[3] guardBandState:vector ETV
attr enum ON,OFF
attr interpolationmode sample-hold
attr moduledisplaypath simpleTsn.bridge2.eth[0].macLayer.queue.p3
attr recordingmode vector
attr source guardBandStateChanged
attr title "guard band state"
attr type enum
vector 90 simpleTsn.bridge2.eth[0].macLayer.queue.transmissionGate[4] gateState:vector ETV
attr enum CLOSED,OPEN
attr interpolationmode sample-hold
attr moduledisplaypath simpleTsn.bridge2.eth[0].macLayer.queue.p4
attr recordingmode vector
attr source gateStateChanged
attr title "gate state"
attr type enum
vector 91 simpleTsn.bridge2.eth[0].macLayer.queue.transmissionGate[4] guardBandState:vector ETV
attr enum ON,OFF
attr interpolationmode sample-hold
attr moduledisplaypath simpleTsn.bridge2.eth[0].macLayer.queue.p4
attr recordingmode vector
attr source guardBandStateChanged
attr title "guard band state"
attr type enum
vector 92 simpleTsn.bridge2.eth[0].macLayer.queue.transmissionGate[5] gateState:vector ETV
attr enum CLOSED,OPEN
attr interpolationmode sample-hold
attr moduledisplaypath simpleTsn.bridge2.eth[0].macLayer.queue.p5
attr recordingmode vector
attr source gateStateChanged
attr title "gate state"
attr type enum
vector 93 simpleTsn.bridge2.eth[0].macLayer.queue.transmissionGate[5] guardBandState:vector ETV
attr enum ON,OFF
attr interpolationmode sample-hold
attr moduledisplaypath simpleTsn.bridge2.eth[0].macLayer.queue.p5
attr recordingmode vector
attr source guardBandStateChanged
attr title "guard band state"
attr type enum
vector 94 simpleTsn.bridge2.eth[0].macLayer.queue.transmissionGate[6] gateState:vector ETV
attr enum CLOSED,OPEN
attr interpolationmode sample-hold
attr moduledisplaypath simpleTsn.bridge2.eth[0].macLayer.queue.p6
attr recordingmode vector
attr source gateStateChanged
attr title "gate state"
attr type enum
vector 95 simpleTsn.bridge2.eth[0].macLayer.queue.transmissionGate[6] guardBandState:vector ETV
attr enum ON,OFF
attr interpolationmode sample-hold
attr moduledisplaypath simpleTsn.bridge2.eth[0].macLayer.queue.p6
attr recordingmode vector
attr source guardBandStateChanged
attr title "guard band state"
attr type enum
vector 96 simpleTsn.bridge2.eth[0].macLayer.queue.transmissionGate[7] gateState:vector ETV
attr enum CLOSED,OPEN
attr interpolationmode sample-hold
attr moduledisplaypath simpleTsn.bridge2.eth[0].macLayer.queue.p7
attr recordingmode vector
attr source gateStateChanged
attr title "gate state"
attr type enum
vector 97 simpleTsn.bridge2.eth[0].macLayer.queue.transmissionGate[7] guardBandState:vector ETV
attr enum ON,OFF
attr interpolationmode sample-hold
attr moduledisplaypath simpleTsn.bridge2.eth[0].macLayer.queue.p7
attr recordingmode vector
attr source guardBandStateChanged
attr title "guard band state"
attr type enum
vector 98 simpleTsn.bridge2.eth[1].macLayer.queue.transmissionGate[0] gateState:vector ETV
attr enum CLOSED,OPEN
attr interpolationmode sample-hold
attr moduledisplaypath "simpleTsn.bridge2.eth[1].macLayer.queue.best effort"
attr recordingmode vector
attr source gateStateChanged
attr title "gate state"
attr type enum
vector 99 simpleTsn.bridge2.eth[1].macLayer.queue.transmissionGate[0] guardBandState:vector ETV
attr enum ON,OFF
attr interpolationmode sample-hold
attr moduledisplaypath "simpleTsn.bridge2.eth[1].macLayer.queue.best effort"
attr recordingmode vector
attr source guardBandStateChanged
attr title "guard band state"
attr type enum
vector 100 simpleTsn.bridge2.eth[1].macLayer.queue.transmissionGate[1] gateState:vector ETV
attr enum CLOSED,OPEN
attr interpolationmode sample-hold
attr moduledisplaypath simpleTsn.bridge2.eth[1].macLayer.queue.video
attr recordingmode vector
attr source gateStateChanged
attr title "gate state"
attr type enum
vector 101 simpleTsn.bridge2.eth[1].macLayer.queue.transmissionGate[1] guardBandState:vector ETV
attr enum ON,OFF
attr interpolationmode sample-hold
attr moduledisplaypath simpleTsn.bridge2.eth[1].macLayer.queue.video
attr recordingmode vector
attr source guardBandStateChanged
attr title "guard band state"
attr type enum
vector 102 simpleTsn.bridge2.eth[1].macLayer.queue.transmissionGate[2] gateState:vector ETV
attr enum CLOSED,OPEN
attr interpolationmode sample-hold
attr moduledisplaypath simpleTsn.bridge2.eth[1].macLayer.queue.control
attr recordingmode vector
attr source gateStateChanged
attr title "gate state"
attr type enum
vector 103 simpleTsn.bridge2.eth[1].macLayer.queue.transmissionGate[2] guardBandState:vector ETV
attr enum ON,OFF
attr interpolationmode sample-hold
attr moduledisplaypath simpleTsn.bridge2.eth[1].macLayer.queue.control
attr recordingmode vector
attr source guardBandStateChanged
attr title "guard band state"
attr type enum
vector 104 simpleTsn.bridge2.eth[1].macLayer.queue.transmissionGate[3] gateState:vector ETV
attr enum CLOSED,OPEN
attr interpolationmode sample-hold
attr moduledisplaypath simpleTsn.bridge2.eth[1].macLayer.queue.p3
attr recordingmode vector
attr source gateStateChanged
attr title "gate state"
attr type enum
vector 105 simpleTsn.bridge2.eth[1].macLayer.queue.transmissionGate[3] guardBandState:vector ETV
attr enum ON,OFF
attr interpolationmode sample-hold
attr moduledisplaypath simpleTsn.bridge2.eth[1].macLayer.queue.p3
attr recordingmode vector
attr source guardBandStateChanged
attr title "guard band state"
attr type enum
vector 106 simpleTsn.bridge2.eth[1].macLayer.queue.transmissionGate[4] gateState:vector ETV
attr enum CLOSED,OPEN
attr interpolationmode sample-hold
attr moduledisplaypath simpleTsn.bridge2.eth[1].macLayer.queue.p4
attr recordingmode vector
attr source gateStateChanged
attr title "gate state"
attr type enum
vector 107 simpleTsn.bridge2.eth[1].macLayer.queue.transmissionGate[4] guardBandState:vector ETV
attr enum ON,OFF
attr interpolationmode sample-hold
attr moduledisplaypath simpleTsn.bridge2.eth[1].macLayer.queue.p4
attr recordingmode vector
attr source guardBandStateChanged
attr title "guard band state"
attr type enum
vector 108 simpleTsn.bridge2.eth[1].macLayer.queue.transmissionGate[5] gateState:vector ETV
attr enum CLOSED,OPEN
attr interpolationmode sample-hold
attr moduledisplaypath simpleTsn.bridge2.eth[1].macLayer.queue.p5
attr recordingmode vector
attr source gateStateChanged
attr title "gate state"
attr type enum
vector 109 simpleTsn.bridge2.eth[1].macLayer.queue.transmissionGate[5] guardBandState:vector ETV
attr enum ON,OFF
attr interpolationmode sample-hold
attr moduledisplaypath simpleTsn.bridge2.eth[1].macLayer.queue.p5
attr recordingmode vector
attr source guardBandStateChanged
attr title "guard band state"
attr type enum
vector 110 simpleTsn.bridge2.eth[1].macLayer.queue.transmissionGate[6] gateState:vector ETV
attr enum CLOSED,OPEN
attr interpolationmode sample-hold
attr moduledisplaypath simpleTsn.bridge2.eth[1].macLayer.queue.p6
attr recordingmode vector
attr source gateStateChanged
attr title "gate state"
attr type enum
vector 111 simpleTsn.bridge2.eth[1].macLayer.queue.transmissionGate[6] guardBandState:vector ETV
attr enum ON,OFF
attr interpolationmode sample-hold
attr moduledisplaypath simpleTsn.bridge2.eth[1].macLayer.queue.p6
attr recordingmode vector
attr source guardBandStateChanged
attr title "guard band state"
attr type enum
vector 112 simpleTsn.bridge2.eth[1].macLayer.queue.transmissionGate[7] gateState:vector ETV
attr enum CLOSED,OPEN
attr interpolationmode sample-hold
attr moduledisplaypath simpleTsn.bridge2.eth[1].macLayer.queue.p7
attr recordingmode vector
attr source gateStateChanged
attr title "gate state"
attr type enum
vector 113 simpleTsn.bridge2.eth[1].macLayer.queue.transmissionGate[7] guardBandState:vector ETV
attr enum ON,OFF
attr interpolationmode sample-hold
attr moduledisplaypath simpleTsn.bridge2.eth[1].macLayer.queue.p7
attr recordingmode vector
attr source guardBandStateChanged
attr title "guard band state"
attr type enum
vector 114 simpleTsn.bridge2.eth[2].macLayer.queue.transmissionGate[0] gateState:vector ETV
attr enum CLOSED,OPEN
attr interpolationmode sample-hold
attr moduledisplaypath "simpleTsn.bridge2.eth[2].macLayer.queue.best effort"
attr recordingmode vector
attr source gateStateChanged
attr title "gate state"
attr type enum
vector 115 simpleTsn.bridge2.eth[2].macLayer.queue.transmissionGate[0] guardBandState:vector ETV
attr enum ON,OFF
attr interpolationmode sample-hold
attr moduledisplaypath "simpleTsn.bridge2.eth[2].macLayer.queue.best effort"
attr recordingmode vector
attr source guardBandStateChanged
attr title "guard band state"
attr type enum
vector 116 simpleTsn.bridge2.eth[2].macLayer.queue.transmissionGate[1] gateState:vector ETV
attr enum CLOSED,OPEN
attr interpolationmode sample-hold
attr moduledisplaypath simpleTsn.bridge2.eth[2].macLayer.queue.video
attr recordingmode vector
attr source gateStateChanged
attr title "gate state"
attr type enum
vector 117 simpleTsn.bridge2.eth[2].macLayer.queue.transmissionGate[1] guardBandState:vector ETV
attr enum ON,OFF
attr interpolationmode sample-hold
attr moduledisplaypath simpleTsn.bridge2.eth[2].macLayer.queue.video
attr recordingmode vector
attr source guardBandStateChanged
attr title "guard band state"
attr type enum
vector 118 simpleTsn.bridge2.eth[2].macLayer.queue.transmissionGate[2] gateState:vector ETV
attr enum CLOSED,OPEN
attr interpolationmode sample-hold
attr moduledisplaypath simpleTsn.bridge2.eth[2].macLayer.queue.control
attr recordingmode vector
attr source gateStateChanged
attr title "gate state"
attr type enum
vector 119 simpleTsn.bridge2.eth[2].macLayer.queue.transmissionGate[2] guardBandState:vector ETV
attr enum ON,OFF
attr interpolationmode sample-hold
attr moduledisplaypath simpleTsn.bridge2.eth[2].macLayer.queue.control
attr recordingmode vector
attr source guardBandStateChanged
attr title "guard band state"
attr type enum
vector 120 simpleTsn.bridge2.eth[2].macLayer.queue.transmissionGate[3] gateState:vector ETV
attr enum CLOSED,OPEN
attr interpolationmode sample-hold
attr moduledisplaypath simpleTsn.bridge2.eth[2].macLayer.queue.p3
attr recordingmode vector
attr source gateStateChanged
attr title "gate state"
attr type enum
vector 121 simpleTsn.bridge2.eth[2].macLayer.queue.transmissionGate[3] guardBandState:vector ETV
attr enum ON,OFF
attr interpolationmode sample-hold
attr moduledisplaypath simpleTsn.bridge2.eth[2].macLayer.queue.p3
attr recordingmode vector
attr source guardBandStateChanged
attr title "guard band state"
attr type enum
vector 122 simpleTsn.bridge2.eth[2].macLayer.queue.transmissionGate[4] gateState:vector ETV
attr enum CLOSED,OPEN
attr interpolationmode sample-hold
attr moduledisplaypath simpleTsn.bridge2.eth[2].macLayer.queue.p4
attr recordingmode vector
attr source gateStateChanged
attr title "gate state"
attr type enum
vector 123 simpleTsn.bridge2.eth[2].macLayer.queue.transmissionGate[4] guardBandState:vector ETV
attr enum ON,OFF
attr interpolationmode sample-hold
attr moduledisplaypath simpleTsn.bridge2.eth[2].macLayer.queue.p4
attr recordingmode vector
attr source guardBandStateChanged
attr title "guard band state"
attr type enum
vector 124 simpleTsn.bridge2.eth[2].macLayer.queue.transmissionGate[5] gateState:vector ETV
attr enum CLOSED,OPEN
attr interpolationmode sample-hold
attr moduledisplaypath simpleTsn.bridge2.eth[2].macLayer.queue.p5
attr recordingmode vector
attr source gateStateChanged
attr title "gate state"
attr type enum
vector 125 simpleTsn.bridge2.eth[2].macLayer.queue.transmissionGate[5] guardBandState:vector ETV
attr enum ON,OFF
attr interpolationmode sample-hold
attr moduledisplaypath simpleTsn.bridge2.eth[2].macLayer.queue.p5
attr recordingmode vector
attr source guardBandStateChanged
attr title "guard band state"
attr type enum
vector 126 simpleTsn.bridge2.eth[2].macLayer.queue.transmissionGate[6] gateState:vector ETV
attr enum CLOSED,OPEN
attr interpolationmode sample-hold
attr moduledisplaypath simpleTsn.bridge2.eth[2].macLayer.queue.p6
attr recordingmode vector
attr source gateStateChanged
attr title "gate state"
attr type enum
vector 127 simpleTsn.bridge2.eth[2].macLayer.queue.transmissionGate[6] guardBandState:vector ETV
attr enum ON,OFF
attr interpolationmode sample-hold
attr moduledisplaypath simpleTsn.bridge2.eth[2].macLayer.queue.p6
attr recordingmode vector
attr source guardBandStateChanged
attr title "guard band state"
attr type enum
vector 128 simpleTsn.bridge2.eth[2].macLayer.queue.transmissionGate[7] gateState:vector ETV
attr enum CLOSED,OPEN
attr interpolationmode sample-hold
attr moduledisplaypath simpleTsn.bridge2.eth[2].macLayer.queue.p7
attr recordingmode vector
attr source gateStateChanged
attr title "gate state"
attr type enum
vector 129 simpleTsn.bridge2.eth[2].macLayer.queue.transmissionGate[7] guardBandState:vector ETV
attr enum ON,OFF
attr interpolationmode sample-hold
attr moduledisplaypath simpleTsn.bridge2.eth[2].macLayer.queue.p7
attr recordingmode vector
attr source guardBandStateChanged
attr title "guard band state"
attr type enum
vector 130 simpleTsn.bridge3.eth[0].macLayer.queue.transmissionGate[0] gateState:vector ETV
attr enum CLOSED,OPEN
attr interpolationmode sample-hold
attr moduledisplaypath "simpleTsn.bridge3.eth[0].macLayer.queue.best effort"
attr recordingmode vector
attr source gateStateChanged
attr title "gate state"
attr type enum
vector 131 simpleTsn.bridge3.eth[0].macLayer.queue.transmissionGate[0] guardBandState:vector ETV
attr enum ON,OFF
attr interpolationmode sample-hold
attr moduledisplaypath "simpleTsn.bridge3.eth[0].macLayer.queue.best effort"
attr recordingmode vector
attr source guardBandStateChanged
attr title "guard band state"
attr type enum
vector 132 simpleTsn.bridge3.eth[0].macLayer.queue.transmissionGate[1] gateState:vector ETV
attr enum CLOSED,OPEN
attr interpolationmode sample-hold
attr moduledisplaypath simpleTsn.bridge3.eth[0].macLayer.queue.video
attr recordingmode vector
attr source gateStateChanged
attr title "gate state"
attr type enum
vector 133 simpleTsn.bridge3.eth[0].macLayer.queue.transmissionGate[1] guardBandState:vector ETV
attr enum ON,OFF
attr interpolationmode sample-hold
attr moduledisplaypath simpleTsn.bridge3.eth[0].macLayer.queue.video
attr recordingmode vector
attr source guardBandStateChanged
attr title "guard band state"
attr type enum
vector 134 simpleTsn.bridge3.eth[0].macLayer.queue.transmissionGate[2] gateState:vector ETV
attr enum CLOSED,OPEN
attr interpolationmode sample-hold
attr moduledisplaypath simpleTsn.bridge3.eth[0].macLayer.queue.control
attr recordingmode vector
attr source gateStateChanged
attr title "gate state"
attr type enum
vector 135 simpleTsn.bridge3.eth[0].macLayer.queue.transmissionGate[2] guardBandState:vector ETV
attr enum ON,OFF
attr interpolationmode sample-hold
attr moduledisplaypath simpleTsn.bridge3.eth[0].macLayer.queue.control
attr recordingmode vector
attr source guardBandStateChanged
attr title "guard band state"
attr type enum
vector 136 simpleTsn.bridge3.eth[0].macLayer.queue.transmissionGate[3] gateState:vector ETV
attr enum CLOSED,OPEN
attr interpolationmode sample-hold
attr moduledisplaypath simpleTsn.bridge3.eth[0].macLayer.queue.p3
attr recordingmode vector
attr source gateStateChanged
attr title "gate state"
attr type enum
vector 137 simpleTsn.bridge3.eth[0].macLayer.queue.transmissionGate[3] guardBandState:vector ETV
attr enum ON,OFF
attr interpolationmode sample-hold
attr moduledisplaypath simpleTsn.bridge3.eth[0].macLayer.queue.p3
attr recordingmode vector
attr source guardBandStateChanged
attr title "guard band state"
attr type enum
vector 138 simpleTsn.bridge3.eth[0].macLayer.queue.transmissionGate[4] gateState:vector ETV
attr enum CLOSED,OPEN
attr interpolationmode sample-hold
attr moduledisplaypath simpleTsn.bridge3.eth[0].macLayer.queue.p4
attr recordingmode vector
attr source gateStateChanged
attr title "gate state"
attr type enum
vector 139 simpleTsn.bridge3.eth[0].macLayer.queue.transmissionGate[4] guardBandState:vector ETV
attr enum ON,OFF
attr interpolationmode sample-hold
attr moduledisplaypath simpleTsn.bridge3.eth[0].macLayer.queue.p4
attr recordingmode vector
attr source guardBandStateChanged
attr title "guard band state"
attr type enum
vector 140 simpleTsn.bridge3.eth[0].macLayer.queue.transmissionGate[5] gateState:vector ETV
attr enum CLOSED,OPEN
attr interpolationmode sample-hold
attr moduledisplaypath simpleTsn.bridge3.eth[0].macLayer.queue.p5
attr recordingmode vector
attr source gateStateChanged
attr title "gate state"
attr type enum
vector 141 simpleTsn.bridge3.eth[0].macLayer.queue.transmissionGate[5] guardBandState:vector ETV
attr enum ON,OFF
attr interpolationmode sample-hold
attr moduledisplaypath simpleTsn.bridge3.eth[0].macLayer.queue.p5
attr recordingmode vector
attr source guardBandStateChanged
attr title "guard band state"
attr type enum
vector 142 simpleTsn.bridge3.eth[0].macLayer.queue.transmissionGate[6] gateState:vector ETV
attr enum CLOSED,OPEN
attr interpolationmode sample-hold
attr moduledisplaypath simpleTsn.bridge3.eth[0].macLayer.queue.p6
attr recordingmode vector
attr source gateStateChanged
attr title "gate state"
attr type enum
vector 143 simpleTsn.bridge3.eth[0].macLayer.queue.transmissionGate[6] guardBandState:vector ETV
attr enum ON,OFF
attr interpolationmode sample-hold
attr moduledisplaypath simpleTsn.bridge3.eth[0].macLayer.queue.p6
attr recordingmode vector
attr source guardBandStateChanged
attr title "guard band state"
attr type enum
vector 144 simpleTsn.bridge3.eth[0].macLayer.queue.transmissionGate[7] gateState:vector ETV
attr enum CLOSED,OPEN
attr interpolationmode sample-hold
attr moduledisplaypath simpleTsn.bridge3.eth[0].macLayer.queue.p7
attr recordingmode vector
attr source gateStateChanged
attr title "gate state"
attr type enum
vector 145 simpleTsn.bridge3.eth[0].macLayer.queue.transmissionGate[7] guardBandState:vector ETV
attr enum ON,OFF
attr interpolationmode sample-hold
attr moduledisplaypath simpleTsn.bridge3.eth[0].macLayer.queue.p7
attr recordingmode vector
attr source guardBandStateChanged
attr title "guard band state"
attr type enum
vector 146 simpleTsn.bridge3.eth[1].macLayer.queue.transmissionGate[0] gateState:vector ETV
attr enum CLOSED,OPEN
attr interpolationmode sample-hold
attr moduledisplaypath "simpleTsn.bridge3.eth[1].macLayer.queue.best effort"
attr recordingmode vector
attr source gateStateChanged
attr title "gate state"
attr type enum
vector 147 simpleTsn.bridge3.eth[1].macLayer.queue.transmissionGate[0] guardBandState:vector ETV
attr enum ON,OFF
attr interpolationmode sample-hold
attr moduledisplaypath "simpleTsn.bridge3.eth[1].macLayer.queue.best effort"
attr recordingmode vector
attr source guardBandStateChanged
attr title "guard band state"
attr type enum
vector 148 simpleTsn.bridge3.eth[1].macLayer.queue.transmissionGate[1] gateState:vector ETV
attr enum CLOSED,OPEN
attr interpolationmode sample-hold
attr moduledisplaypath simpleTsn.bridge3.eth[1].macLayer.queue.video
attr recordingmode vector
attr source gateStateChanged
attr title "gate state"
attr type enum
vector 149 simpleTsn.bridge3.eth[1].macLayer.queue.transmissionGate[1] guardBandState:vector ETV
attr enum ON,OFF
attr interpolationmode sample-hold
attr moduledisplaypath simpleTsn.bridge3.eth[1].macLayer.queue.video
attr recordingmode vector
attr source guardBandStateChanged
attr title "guard band state"
attr type enum
vector 150 simpleTsn.bridge3.eth[1].macLayer.queue.transmissionGate[2] gateState:vector ETV
attr enum CLOSED,OPEN
attr interpolationmode sample-hold
attr moduledisplaypath simpleTsn.bridge3.eth[1].macLayer.queue.control
attr recordingmode vector
attr source gateStateChanged
attr title "gate state"
attr type enum
vector 151 simpleTsn.bridge3.eth[1].macLayer.queue.transmissionGate[2] guardBandState:vector ETV
attr enum ON,OFF
attr interpolationmode sample-hold
attr moduledisplaypath simpleTsn.bridge3.eth[1].macLayer.queue.control
attr recordingmode vector
attr source guardBandStateChanged
attr title "guard band state"
attr type enum
vector 152 simpleTsn.bridge3.eth[1].macLayer.queue.transmissionGate[3] gateState:vector ETV
attr enum CLOSED,OPEN
attr interpolationmode sample-hold
attr moduledisplaypath simpleTsn.bridge3.eth[1].macLayer.queue.p3
attr recordingmode vector
attr source gateStateChanged
attr title "gate state"
attr type enum
vector 153 simpleTsn.bridge3.eth[1].macLayer.queue.transmissionGate[3] guardBandState:vector ETV
attr enum ON,OFF
attr interpolationmode sample-hold
attr moduledisplaypath simpleTsn.bridge3.eth[1].macLayer.queue.p3
attr recordingmode vector
attr source guardBandStateChanged
attr title "guard band state"
attr type enum
vector 154 simpleTsn.bridge3.eth[1].macLayer.queue.transmissionGate[4] gateState:vector ETV
attr enum CLOSED,OPEN
attr interpolationmode sample-hold
attr moduledisplaypath simpleTsn.bridge3.eth[1].macLayer.queue.p4
attr recordingmode vector
attr source gateStateChanged
attr title "gate state"
attr type enum
vector 155 simpleTsn.bridge3.eth[1].macLayer.queue.transmissionGate[4] guardBandState:vector ETV
attr enum ON,OFF
attr interpolationmode sample-hold
attr moduledisplaypath simpleTsn.bridge3.eth[1].macLayer.queue.p4
attr recordingmode vector
attr source guardBandStateChanged
attr title "guard band state"
attr type enum
vector 156 simpleTsn.bridge3.eth[1].macLayer.queue.transmissionGate[5] gateState:vector ETV
attr enum CLOSED,OPEN
attr interpolationmode sample-hold
attr moduledisplaypath simpleTsn.bridge3.eth[1].macLayer.queue.p5
attr recordingmode vector
attr source gateStateChanged
attr title "gate state"
attr type enum
vector 157 simpleTsn.bridge3.eth[1].macLayer.queue.transmissionGate[5] guardBandState:vector ETV
attr enum ON,OFF
attr interpolationmode sample-hold
attr moduledisplaypath simpleTsn.bridge3.eth[1].macLayer.queue.p5
attr recordingmode vector
attr source guardBandStateChanged
attr title "guard band state"
attr type enum
vector 158 simpleTsn.bridge3.eth[1].macLayer.queue.transmissionGate[6] gateState:vector ETV
attr enum CLOSED,OPEN
attr interpolationmode sample-hold
attr moduledisplaypath simpleTsn.bridge3.eth[1].macLayer.queue.p6
attr recordingmode vector
attr source gateStateChanged
attr title "gate state"
attr type enum
vector 159 simpleTsn.bridge3.eth[1].macLayer.queue.transmissionGate[6] guardBandState:vector ETV
attr enum ON,OFF
attr interpolationmode sample-hold
attr moduledisplaypath simpleTsn.bridge3.eth[1].macLayer.queue.p6
attr recordingmode vector
attr source guardBandStateChanged
attr title "guard band state"
attr type enum
vector 160 simpleTsn.bridge3.eth[1].macLayer.queue.transmissionGate[7] gateState:vector ETV
attr enum CLOSED,OPEN
attr interpolationmode sample-hold
attr moduledisplaypath simpleTsn.bridge3.eth[1].macLayer.queue.p7
attr recordingmode vector
attr source gateStateChanged
attr title "gate state"
attr type enum
vector 161 simpleTsn.bridge3.eth[1].macLayer.queue.transmissionGate[7] guardBandState:vector ETV
attr enum ON,OFF
attr interpolationmode sample-hold
attr moduledisplaypath simpleTsn.bridge3.eth[1].macLayer.queue.p7
attr recordingmode vector
attr source guardBandStateChanged
attr title "guard band state"
attr type enum
vector 162 simpleTsn.device1.eth[0].macLayer.queue.transmissionGate[0] gateState:vector ETV
attr enum CLOSED,OPEN
attr interpolationmode sample-hold
attr recordingmode vector
attr source gateStateChanged
attr title "gate state"
attr type enum
vector 163 simpleTsn.device1.eth[0].macLayer.queue.transmissionGate[0] guardBandState:vector ETV
attr enum ON,OFF
attr interpolationmode sample-hold
attr recordingmode vector
attr source guardBandStateChanged
attr title "guard band state"
attr type enum
vector 164 simpleTsn.device1.eth[0].macLayer.queue.transmissionGate[1] gateState:vector ETV
attr enum CLOSED,OPEN
attr interpolationmode sample-hold
attr recordingmode vector
attr source gateStateChanged
attr title "gate state"
attr type enum
vector 165 simpleTsn.device1.eth[0].macLayer.queue.transmissionGate[1] guardBandState:vector ETV
attr enum ON,OFF
attr interpolationmode sample-hold
attr recordingmode vector
attr source guardBandStateChanged
attr title "guard band state"
attr type enum
vector 166 simpleTsn.device1.eth[0].macLayer.queue.transmissionGate[2] gateState:vector ETV
attr enum CLOSED,OPEN
attr interpolationmode sample-hold
attr recordingmode vector
attr source gateStateChanged
attr title "gate state"
attr type enum
vector 167 simpleTsn.device1.eth[0].macLayer.queue.transmissionGate[2] guardBandState:vector ETV
attr enum ON,OFF
attr interpolationmode sample-hold
attr recordingmode vector
attr source guardBandStateChanged
attr title "guard band state"
attr type enum
vector 168 simpleTsn.device1.eth[0].macLayer.queue.transmissionGate[3] gateState:vector ETV
attr enum CLOSED,OPEN
attr interpolationmode sample-hold
attr recordingmode vector
attr source gateStateChanged
attr title "gate state"
attr type enum
vector 169 simpleTsn.device1.eth[0].macLayer.queue.transmissionGate[3] guardBandState:vector ETV
attr enum ON,OFF
attr interpolationmode sample-hold
attr recordingmode vector
attr source guardBandStateChanged
attr title "guard band state"
attr type enum
vector 170 simpleTsn.device1.eth[0].macLayer.queue.transmissionGate[4] gateState:vector ETV
attr enum CLOSED,OPEN
attr interpolationmode sample-hold
attr recordingmode vector
attr source gateStateChanged
attr title "gate state"
attr type enum
vector 171 simpleTsn.device1.eth[0].macLayer.queue.transmissionGate[4] guardBandState:vector ETV
attr enum ON,OFF
attr interpolationmode sample-hold
attr recordingmode vector
attr source guardBandStateChanged
attr title "guard band state"
attr type enum
vector 172 simpleTsn.device1.eth[0].macLayer.queue.transmissionGate[5] gateState:vector ETV
attr enum CLOSED,OPEN
attr interpolationmode sample-hold
attr recordingmode vector
attr source gateStateChanged
attr title "gate state"
attr type enum
vector 173 simpleTsn.device1.eth[0].macLayer.queue.transmissionGate[5] guardBandState:vector ETV
attr enum ON,OFF
attr interpolationmode sample-hold
attr recordingmode vector
attr source guardBandStateChanged
attr title "guard band state"
attr type enum
vector 174 simpleTsn.device1.eth[0].macLayer.queue.transmissionGate[6] gateState:vector ETV
attr enum CLOSED,OPEN
attr interpolationmode sample-hold
attr recordingmode vector
attr source gateStateChanged
attr title "gate state"
attr type enum
vector 175 simpleTsn.device1.eth[0].macLayer.queue.transmissionGate[6] guardBandState:vector ETV
attr enum ON,OFF
attr interpolationmode sample-hold
attr recordingmode vector
attr source guardBandStateChanged
attr title "guard band state"
attr type enum
vector 176 simpleTsn.device1.eth[0].macLayer.queue.transmissionGate[7] gateState:vector ETV
attr enum CLOSED,OPEN
attr interpolationmode sample-hold
attr recordingmode vector
attr source gateStateChanged
attr title "gate state"
attr type enum
vector 177 simpleTsn.device1.eth[0].macLayer.queue.transmissionGate[7] guardBandState:vector ETV
attr enum ON,OFF
attr interpolationmode sample-hold
attr recordingmode vector
attr source guardBandStateChanged
attr title "guard band state"
attr type enum
vector 178 simpleTsn.device2.eth[0].macLayer.queue.transmissionGate[0] gateState:vector ETV
attr enum CLOSED,OPEN
attr interpolationmode sample-hold
attr recordingmode vector
attr source gateStateChanged
attr title "gate state"
attr type enum
vector 179 simpleTsn.device2.eth[0].macLayer.queue.transmissionGate[0] guardBandState:vector ETV
attr enum ON,OFF
attr interpolationmode sample-hold
attr recordingmode vector
attr source guardBandStateChanged
attr title "guard band state"
attr type enum
vector 180 simpleTsn.device2.eth[0].macLayer.queue.transmissionGate[1] gateState:vector ETV
attr enum CLOSED,OPEN
attr interpolationmode sample-hold
attr recordingmode vector
attr source gateStateChanged
attr title "gate state"
attr type enum
vector 181 simpleTsn.device2.eth[0].macLayer.queue.transmissionGate[1] guardBandState:vector ETV
attr enum ON,OFF
attr interpolationmode sample-hold
attr recordingmode vector
attr source guardBandStateChanged
attr title "guard band state"
attr type enum
vector 182 simpleTsn.device2.eth[0].macLayer.queue.transmissionGate[2] gateState:vector ETV
attr enum CLOSED,OPEN
attr interpolationmode sample-hold
attr recordingmode vector
attr source gateStateChanged
attr title "gate state"
attr type enum
vector 183 simpleTsn.device2.eth[0].macLayer.queue.transmissionGate[2] guardBandState:vector ETV
attr enum ON,OFF
attr interpolationmode sample-hold
attr recordingmode vector
attr source guardBandStateChanged
attr title "guard band state"
attr type enum
vector 184 simpleTsn.device2.eth[0].macLayer.queue.transmissionGate[3] gateState:vector ETV
attr enum CLOSED,OPEN
attr interpolationmode sample-hold
attr recordingmode vector
attr source gateStateChanged
attr title "gate state"
attr type enum
vector 185 simpleTsn.device2.eth[0].macLayer.queue.transmissionGate[3] guardBandState:vector ETV
attr enum ON,OFF
attr interpolationmode sample-hold
attr recordingmode vector
attr source guardBandStateChanged
attr title "guard band state"
attr type enum
vector 186 simpleTsn.device2.eth[0].macLayer.queue.transmissionGate[4] gateState:vector ETV
attr enum CLOSED,OPEN
attr interpolationmode sample-hold
attr recordingmode vector
attr source gateStateChanged
attr title "gate state"
attr type enum
vector 187 simpleTsn.device2.eth[0].macLayer.queue.transmissionGate[4] guardBandState:vector ETV
attr enum ON,OFF
attr interpolationmode sample-hold
attr recordingmode vector
attr source guardBandStateChanged
attr title "guard band state"
attr type enum
vector 188 simpleTsn.device2.eth[0].macLayer.queue.transmissionGate[5] gateState:vector ETV
attr enum CLOSED,OPEN
attr interpolationmode sample-hold
attr recordingmode vector
attr source gateStateChanged
attr title "gate state"
attr type enum
vector 189 simpleTsn.device2.eth[0].macLayer.queue.transmissionGate[5] guardBandState:vector ETV
attr enum ON,OFF
attr interpolationmode sample-hold
attr recordingmode vector
attr source guardBandStateChanged
attr title "guard band state"
attr type enum
vector 190 simpleTsn.device2.eth[0].macLayer.queue.transmissionGate[6] gateState:vector ETV
attr enum CLOSED,OPEN
attr interpolationmode sample-hold
attr recordingmode vector
attr source gateStateChanged
attr title "gate state"
attr type enum
vector 191 simpleTsn.device2.eth[0].macLayer.queue.transmissionGate[6] guardBandState:vector ETV
attr enum ON,OFF
attr interpolationmode sample-hold
attr recordingmode vector
attr source guardBandStateChanged
attr title "guard band state"
attr type enum
vector 192 simpleTsn.device2.eth[0].macLayer.queue.transmissionGate[7] gateState:vector ETV
attr enum CLOSED,OPEN
attr interpolationmode sample-hold
attr recordingmode vector
attr source gateStateChanged
attr title "gate state"
attr type enum
vector 193 simpleTsn.device2.eth[0].macLayer.queue.transmissionGate[7] guardBandState:vector ETV
attr enum ON,OFF
attr interpolationmode sample-hold
attr recordingmode vector
attr source guardBandStateChanged
attr title "guard band state"
attr type enum
vector 194 simpleTsn.detCom.dstt[0].eth[0].macLayer.queue.transmissionGate[0] gateState:vector ETV
attr enum CLOSED,OPEN
attr interpolationmode sample-hold
attr recordingmode vector
attr source gateStateChanged
attr title "gate state"
attr type enum
vector 195 simpleTsn.detCom.dstt[0].eth[0].macLayer.queue.transmissionGate[0] guardBandState:vector ETV
attr enum ON,OFF
attr interpolationmode sample-hold
attr recordingmode vector
attr source guardBandStateChanged
attr title "guard band state"
attr type enum
vector 196 simpleTsn.detCom.dstt[0].eth[0].macLayer.queue.transmissionGate[1] gateState:vector ETV
attr enum CLOSED,OPEN
attr interpolationmode sample-hold
attr recordingmode vector
attr source gateStateChanged
attr title "gate state"
attr type enum
vector 197 simpleTsn.detCom.dstt[0].eth[0].macLayer.queue.transmissionGate[1] guardBandState:vector ETV
attr enum ON,OFF
attr interpolationmode sample-hold
attr recordingmode vector
attr source guardBandStateChanged
attr title "guard band state"
attr type enum
vector 198 simpleTsn.detCom.dstt[0].eth[0].macLayer.queue.transmissionGate[2] gateState:vector ETV
attr enum CLOSED,OPEN
attr interpolationmode sample-hold
attr recordingmode vector
attr source gateStateChanged
attr title "gate state"
attr type enum
vector 199 simpleTsn.detCom.dstt[0].eth[0].macLayer.queue.transmissionGate[2] guardBandState:vector ETV
attr enum ON,OFF
attr interpolationmode sample-hold
attr recordingmode vector
attr source guardBandStateChanged
attr title "guard band state"
attr type enum
vector 200 simpleTsn.detCom.dstt[0].eth[0].macLayer.queue.transmissionGate[3] gateState:vector ETV
attr enum CLOSED,OPEN
attr interpolationmode sample-hold
attr recordingmode vector
attr source gateStateChanged
attr title "gate state"
attr type enum
vector 201 simpleTsn.detCom.dstt[0].eth[0].macLayer.queue.transmissionGate[3] guardBandState:vector ETV
attr enum ON,OFF
attr interpolationmode sample-hold
attr recordingmode vector
attr source guardBandStateChanged
attr title "guard band state"
attr type enum
vector 202 simpleTsn.detCom.dstt[0].eth[0].macLayer.queue.transmissionGate[4] gateState:vector ETV
attr enum CLOSED,OPEN
attr interpolationmode sample-hold
attr recordingmode vector
attr source gateStateChanged
attr title "gate state"
attr type enum
vector 203 simpleTsn.detCom.dstt[0].eth[0].macLayer.queue.transmissionGate[4] guardBandState:vector ETV
attr enum ON,OFF
attr interpolationmode sample-hold
attr recordingmode vector
attr source guardBandStateChanged
attr title "guard band state"
attr type enum
vector 204 simpleTsn.detCom.dstt[0].eth[0].macLayer.queue.transmissionGate[5] gateState:vector ETV
attr enum CLOSED,OPEN
attr interpolationmode sample-hold
attr recordingmode vector
attr source gateStateChanged
attr title "gate state"
attr type enum
vector 205 simpleTsn.detCom.dstt[0].eth[0].macLayer.queue.transmissionGate[5] guardBandState:vector ETV
attr enum ON,OFF
attr interpolationmode sample-hold
attr recordingmode vector
attr source guardBandStateChanged
attr title "guard band state"
attr type enum
vector 206 simpleTsn.detCom.dstt[0].eth[0].macLayer.queue.transmissionGate[6] gateState:vector ETV
attr enum CLOSED,OPEN
attr interpolationmode sample-hold
attr recordingmode vector
attr source gateStateChanged
attr title "gate state"
attr type enum
vector 207 simpleTsn.detCom.dstt[0].eth[0].macLayer.queue.transmissionGate[6] guardBandState:vector ETV
attr enum ON,OFF
attr interpolationmode sample-hold
attr recordingmode vector
attr source guardBandStateChanged
attr title "guard band state"
attr type enum
vector 208 simpleTsn.detCom.dstt[0].eth[0].macLayer.queue.transmissionGate[7] gateState:vector ETV
attr enum CLOSED,OPEN
attr interpolationmode sample-hold
attr recordingmode vector
attr source gateStateChanged
attr title "gate state"
attr type enum
vector 209 simpleTsn.detCom.dstt[0].eth[0].macLayer.queue.transmissionGate[7] guardBandState:vector ETV
attr enum ON,OFF
attr interpolationmode sample-hold
attr recordingmode vector
attr source guardBandStateChanged
attr title "guard band state"
attr type enum
vector 210 simpleTsn.detCom.dstt[0].tt[0].macLayer.queue.transmissionGate[0] gateState:vector ETV
attr enum CLOSED,OPEN
attr interpolationmode sample-hold
attr recordingmode vector
attr source gateStateChanged
attr title "gate state"
attr type enum
vector 211 simpleTsn.detCom.dstt[0].tt[0].macLayer.queue.transmissionGate[0] guardBandState:vector ETV
attr enum ON,OFF
attr interpolationmode sample-hold
attr recordingmode vector
attr source guardBandStateChanged
attr title "guard band state"
attr type enum
vector 212 simpleTsn.detCom.dstt[0].tt[0].macLayer.queue.transmissionGate[1] gateState:vector ETV
attr enum CLOSED,OPEN
attr interpolationmode sample-hold
attr recordingmode vector
attr source gateStateChanged
attr title "gate state"
attr type enum
vector 213 simpleTsn.detCom.dstt[0].tt[0].macLayer.queue.transmissionGate[1] guardBandState:vector ETV
attr enum ON,OFF
attr interpolationmode sample-hold
attr recordingmode vector
attr source guardBandStateChanged
attr title "guard band state"
attr type enum
vector 214 simpleTsn.detCom.dstt[0].tt[0].macLayer.queue.transmissionGate[2] gateState:vector ETV
attr enum CLOSED,OPEN
attr interpolationmode sample-hold
attr recordingmode vector
attr source gateStateChanged
attr title "gate state"
attr type enum
vector 215 simpleTsn.detCom.dstt[0].tt[0].macLayer.queue.transmissionGate[2] guardBandState:vector ETV
attr enum ON,OFF
attr interpolationmode sample-hold
attr recordingmode vector
attr source guardBandStateChanged
attr title "guard band state"
attr type enum
vector 216 simpleTsn.detCom.dstt[0].tt[0].macLayer.queue.transmissionGate[3] gateState:vector ETV
attr enum CLOSED,OPEN
attr interpolationmode sample-hold
attr recordingmode vector
attr source gateStateChanged
attr title "gate state"
attr type enum
vector 217 simpleTsn.detCom.dstt[0].tt[0].macLayer.queue.transmissionGate[3] guardBandState:vector ETV
attr enum ON,OFF
attr interpolationmode sample-hold
attr recordingmode vector
attr source guardBandStateChanged
attr title "guard band state"
attr type enum
vector 218 simpleTsn.detCom.dstt[0].tt[0].macLayer.queue.transmissionGate[4] gateState:vector ETV
attr enum CLOSED,OPEN
attr interpolationmode sample-hold
attr recordingmode vector
attr source gateStateChanged
attr title "gate state"
attr type enum
vector 219 simpleTsn.detCom.dstt[0].tt[0].macLayer.queue.transmissionGate[4] guardBandState:vector ETV
attr enum ON,OFF
attr interpolationmode sample-hold
attr recordingmode vector
attr source guardBandStateChanged
attr title "guard band state"
attr type enum
vector 220 simpleTsn.detCom.dstt[0].tt[0].macLayer.queue.transmissionGate[5] gateState:vector ETV
attr enum CLOSED,OPEN
attr interpolationmode sample-hold
attr recordingmode vector
attr source gateStateChanged
attr title "gate state"
attr type enum
vector 221 simpleTsn.detCom.dstt[0].tt[0].macLayer.queue.transmissionGate[5] guardBandState:vector ETV
attr enum ON,OFF
attr interpolationmode sample-hold
attr recordingmode vector
attr source guardBandStateChanged
attr title "guard band state"
attr type enum
vector 222 simpleTsn.detCom.dstt[0].tt[0].macLayer.queue.transmissionGate[6] gateState:vector ETV
attr enum CLOSED,OPEN
attr interpolationmode sample-hold
attr recordingmode vector
attr source gateStateChanged
attr title "gate state"
attr type enum
vector 223 simpleTsn.detCom.dstt[0].tt[0].macLayer.queue.transmissionGate[6] guardBandState:vector ETV
attr enum ON,OFF
attr interpolationmode sample-hold
attr recordingmode vector
attr source guardBandStateChanged
attr title "guard band state"
attr type enum
vector 224 simpleTsn.detCom.dstt[0].tt[0].macLayer.queue.transmissionGate[7] gateState:vector ETV
attr enum CLOSED,OPEN
attr interpolationmode sample-hold
attr recordingmode vector
attr source gateStateChanged
attr title "gate state"
attr type enum
vector 225 simpleTsn.detCom.dstt[0].tt[0].macLayer.queue.transmissionGate[7] guardBandState:vector ETV
attr enum ON,OFF
attr interpolationmode sample-hold
attr recordingmode vector
attr source guardBandStateChanged
attr title "guard band state"
attr type enum
vector 226 simpleTsn.detCom.nwtt.eth[0].macLayer.queue.transmissionGate[0] gateState:vector ETV
attr enum CLOSED,OPEN
attr interpolationmode sample-hold
attr recordingmode vector
attr source gateStateChanged
attr title "gate state"
attr type enum
vector 227 simpleTsn.detCom.nwtt.eth[0].macLayer.queue.transmissionGate[0] guardBandState:vector ETV
attr enum ON,OFF
attr interpolationmode sample-hold
attr recordingmode vector
attr source guardBandStateChanged
attr title "guard band state"
attr type enum
vector 228 simpleTsn.detCom.nwtt.eth[0].macLayer.queue.transmissionGate[1] gateState:vector ETV
attr enum CLOSED,OPEN
attr interpolationmode sample-hold
attr recordingmode vector
attr source gateStateChanged
attr title "gate state"
attr type enum
vector 229 simpleTsn.detCom.nwtt.eth[0].macLayer.queue.transmissionGate[1] guardBandState:vector ETV
attr enum ON,OFF
attr interpolationmode sample-hold
attr recordingmode vector
attr source guardBandStateChanged
attr title "guard band state"
attr type enum
vector 230 simpleTsn.detCom.nwtt.eth[0].macLayer.queue.transmissionGate[2] gateState:vector ETV
attr enum CLOSED,OPEN
attr interpolationmode sample-hold
attr recordingmode vector
attr source gateStateChanged
attr title "gate state"
attr type enum
vector 231 simpleTsn.detCom.nwtt.eth[0].macLayer.queue.transmissionGate[2] guardBandState:vector ETV
attr enum ON,OFF
attr interpolationmode sample-hold
attr recordingmode vector
attr source guardBandStateChanged
attr title "guard band state"
attr type enum
vector 232 simpleTsn.detCom.nwtt.eth[0].macLayer.queue.transmissionGate[3] gateState:vector ETV
attr enum CLOSED,OPEN
attr interpolationmode sample-hold
attr recordingmode vector
attr source gateStateChanged
attr title "gate state"
attr type enum
vector 233 simpleTsn.detCom.nwtt.eth[0].macLayer.queue.transmissionGate[3] guardBandState:vector ETV
attr enum ON,OFF
attr interpolationmode sample-hold
attr recordingmode vector
attr source guardBandStateChanged
attr title "guard band state"
attr type enum
vector 234 simpleTsn.detCom.nwtt.eth[0].macLayer.queue.transmissionGate[4] gateState:vector ETV
attr enum CLOSED,OPEN
attr interpolationmode sample-hold
attr recordingmode vector
attr source gateStateChanged
attr title "gate state"
attr type enum
vector 235 simpleTsn.detCom.nwtt.eth[0].macLayer.queue.transmissionGate[4] guardBandState:vector ETV
attr enum ON,OFF
attr interpolationmode sample-hold
attr recordingmode vector
attr source guardBandStateChanged
attr title "guard band state"
attr type enum
vector 236 simpleTsn.detCom.nwtt.eth[0].macLayer.queue.transmissionGate[5] gateState:vector ETV
attr enum CLOSED,OPEN
attr interpolationmode sample-hold
attr recordingmode vector
attr source gateStateChanged
attr title "gate state"
attr type enum
vector 237 simpleTsn.detCom.nwtt.eth[0].macLayer.queue.transmissionGate[5] guardBandState:vector ETV
attr enum ON,OFF
attr interpolationmode sample-hold
attr recordingmode vector
attr source guardBandStateChanged
attr title "guard band state"
attr type enum
vector 238 simpleTsn.detCom.nwtt.eth[0].macLayer.queue.transmissionGate[6] gateState:vector ETV
attr enum CLOSED,OPEN
attr interpolationmode sample-hold
attr recordingmode vector
attr source gateStateChanged
attr title "gate state"
attr type enum
vector 239 simpleTsn.detCom.nwtt.eth[0].macLayer.queue.transmissionGate[6] guardBandState:vector ETV
attr enum ON,OFF
attr interpolationmode sample-hold
attr recordingmode vector
attr source guardBandStateChanged
attr title "guard band state"
attr type enum
vector 240 simpleTsn.detCom.nwtt.eth[0].macLayer.queue.transmissionGate[7] gateState:vector ETV
attr enum CLOSED,OPEN
attr interpolationmode sample-hold
attr recordingmode vector
attr source gateStateChanged
attr title "gate state"
attr type enum
vector 241 simpleTsn.detCom.nwtt.eth[0].macLayer.queue.transmissionGate[7] guardBandState:vector ETV
attr enum ON,OFF
attr interpolationmode sample-hold
attr recordingmode vector
attr source guardBandStateChanged
attr title "guard band state"
attr type enum
vector 242 simpleTsn.detCom.nwtt.tt[0].macLayer.queue.transmissionGate[0] gateState:vector ETV
attr enum CLOSED,OPEN
attr interpolationmode sample-hold
attr recordingmode vector
attr source gateStateChanged
attr title "gate state"
attr type enum
vector 243 simpleTsn.detCom.nwtt.tt[0].macLayer.queue.transmissionGate[0] guardBandState:vector ETV
attr enum ON,OFF
attr interpolationmode sample-hold
attr recordingmode vector
attr source guardBandStateChanged
attr title "guard band state"
attr type enum
vector 244 simpleTsn.detCom.nwtt.tt[0].macLayer.queue.transmissionGate[1] gateState:vector ETV
attr enum CLOSED,OPEN
attr interpolationmode sample-hold
attr recordingmode vector
attr source gateStateChanged
attr title "gate state"
attr type enum
vector 245 simpleTsn.detCom.nwtt.tt[0].macLayer.queue.transmissionGate[1] guardBandState:vector ETV
attr enum ON,OFF
attr interpolationmode sample-hold
attr recordingmode vector
attr source guardBandStateChanged
attr title "guard band state"
attr type enum
vector 246 simpleTsn.detCom.nwtt.tt[0].macLayer.queue.transmissionGate[2] gateState:vector ETV
attr enum CLOSED,OPEN
attr interpolationmode sample-hold
attr recordingmode vector
attr source gateStateChanged
attr title "gate state"
attr type enum
vector 247 simpleTsn.detCom.nwtt.tt[0].macLayer.queue.transmissionGate[2] guardBandState:vector ETV
attr enum ON,OFF
attr interpolationmode sample-hold
attr recordingmode vector
attr source guardBandStateChanged
attr title "guard band state"
attr type enum
vector 248 simpleTsn.detCom.nwtt.tt[0].macLayer.queue.transmissionGate[3] gateState:vector ETV
attr enum CLOSED,OPEN
attr interpolationmode sample-hold
attr recordingmode vector
attr source gateStateChanged
attr title "gate state"
attr type enum
vector 249 simpleTsn.detCom.nwtt.tt[0].macLayer.queue.transmissionGate[3] guardBandState:vector ETV
attr enum ON,OFF
attr interpolationmode sample-hold
attr recordingmode vector
attr source guardBandStateChanged
attr title "guard band state"
attr type enum
vector 250 simpleTsn.detCom.nwtt.tt[0].macLayer.queue.transmissionGate[4] gateState:vector ETV
attr enum CLOSED,OPEN
attr interpolationmode sample-hold
attr recordingmode vector
attr source gateStateChanged
attr title "gate state"
attr type enum
vector 251 simpleTsn.detCom.nwtt.tt[0].macLayer.queue.transmissionGate[4] guardBandState:vector ETV
attr enum ON,OFF
attr interpolationmode sample-hold
attr recordingmode vector
attr source guardBandStateChanged
attr title "guard band state"
attr type enum
vector 252 simpleTsn.detCom.nwtt.tt[0].macLayer.queue.transmissionGate[5] gateState:vector ETV
attr enum CLOSED,OPEN
attr interpolationmode sample-hold
attr recordingmode vector
attr source gateStateChanged
attr title "gate state"
attr type enum
vector 253 simpleTsn.detCom.nwtt.tt[0].macLayer.queue.transmissionGate[5] guardBandState:vector ETV
attr enum ON,OFF
attr interpolationmode sample-hold
attr recordingmode vector
attr source guardBandStateChanged
attr title "guard band state"
attr type enum
vector 254 simpleTsn.detCom.nwtt.tt[0].macLayer.queue.transmissionGate[6] gateState:vector ETV
attr enum CLOSED,OPEN
attr interpolationmode sample-hold
attr recordingmode vector
attr source gateStateChanged
attr title "gate state"
attr type enum
vector 255 simpleTsn.detCom.nwtt.tt[0].macLayer.queue.transmissionGate[6] guardBandState:vector ETV
attr enum ON,OFF
attr interpolationmode sample-hold
attr recordingmode vector
attr source guardBandStateChanged
attr title "guard band state"
attr type enum
vector 256 simpleTsn.detCom.nwtt.tt[0].macLayer.queue.transmissionGate[7] gateState:vector ETV
attr enum CLOSED,OPEN
attr interpolationmode sample-hold
attr recordingmode vector
attr source gateStateChanged
attr title "gate state"
attr type enum
vector 257 simpleTsn.detCom.nwtt.tt[0].macLayer.queue.transmissionGate[7] guardBandState:vector ETV
attr enum ON,OFF
attr interpolationmode sample-hold
attr recordingmode vector
attr source guardBandStateChanged
attr title "guard band state"
attr type enum
vector 258 simpleTsn.device1.app[0].source packetLengths:vector ETV
attr interpolationmode none
attr moduledisplaypath simpleTsn.device1.stream1.source
attr recordingmode vector
attr source packetLength(packetPushed)
attr title "packet lengths"
attr unit b
vector 259 simpleTsn.device1.app[0].source dataRate:vector ETV
attr interpolationmode linear
attr moduledisplaypath simpleTsn.device1.stream1.source
attr recordingmode vector
attr source throughput(packetPushed)
attr title "data rate"
attr unit bps
vector 260 simpleTsn.device1.app[0].io packetSent:vector(packetBytes) ETV
attr interpolationmode none
attr moduledisplaypath simpleTsn.device1.stream1.io
attr recordingmode vector(packetBytes)
attr source packetSent
attr title "packets sent, packetBytes"
vector 261 simpleTsn.device1.udp packetSent:vector(packetBytes) ETV
attr interpolationmode none
attr recordingmode vector(packetBytes)
attr source packetSent
attr title "packets sent, packetBytes"
vector 262 simpleTsn.device1.bridging.streamIdentifier.identifier incomingPacketLengths:vector ETV
attr interpolationmode none
attr recordingmode vector
attr source "packetLength(merge(packetPushedIn, packetPulledIn))"
attr title "incoming packet lengths"
attr unit b
[...]
1192	269	1	0
1192	269	1.1	0
1192	269	1.2	0
1192	269	1.3	0
1192	269	1.4	0
1192	269	1.5	0
1192	269	1.6	0
1192	269	1.7	0
1192	269	1.8	0
1192	269	1.9	0
1192	269	2	0
1192	269	2.1	0
1192	269	2.2	0
1192	269	2.3	0
1192	269	2.4	0
1192	269	2.5	0
1192	269	2.6	0
1192	269	2.7	0
1192	269	2.8	0
1192	269	2.9	0
1192	269	3	0
1192	269	3.1	0
1192	269	3.2	0
1192	269	3.3	0
1192	269	3.4	0
1192	269	3.5	0
1192	269	3.6	0
1192	269	3.7	0
1192	269	3.8	0
1192	269	3.9	0
1192	269	4	0
1193	269	0.1	0
1193	269	0.2	0
1193	269	0.3	0
1193	269	0.4	0
1193	269	0.5	0
1193	269	0.6	0
1193	269	0.7	0
1193	269	0.8	0
1193	269	0.9	0
1193	269	1	0
1193	269	1.1	0
1193	269	1.2	0
1193	269	1.3	0
1193	269	1.4	0
1193	269	1.5	0
1193	269	1.6	0
1193	269	1.7	0
1193	269	1.8	0
1193	269	1.9	0
1193	269	2	0
1193	269	2.1	0
1193	269	2.2	0
1193	269	2.3	0
1193	269	2.4	0
1193	269	2.5	0
1193	269	2.6	0
1193	269	2.7	0
1193	269	2.8	0
1193	269	2.9	0
1193	269	3	0
1193	269	3.1	0
1193	269	3.2	0
1193	269	3.3	0
1193	269	3.4	0
1193	269	3.5	0
1193	269	3.6	0
1193	269	3.7	0
1193	269	3.8	0
1193	269	3.9	0
1193	269	4	0
1194	269	0.1	0
1194	269	0.2	0
1194	269	0.3	0
1194	269	0.4	0
1194	269	0.5	0
1194	269	0.6	0
1194	269	0.7	0
1194	269	0.8	0
1194	269	0.9	0
1194	269	1	0
1194	269	1.1	0
1194	269	1.2	0
1194	269	1.3	0
1194	269	1.4	0
1194	269	1.5	0
1194	269	1.6	0
1194	269	1.7	0
1194	269	1.8	0
1194	269	1.9	0
1194	269	2	0
1194	269	2.1	0
1194	269	2.2	0
1194	269	2.3	0
1194	269	2.4	0
1194	269	2.5	0
1194	269	2.6	0
1194	269	2.7	0
1194	269	2.8	0
1194	269	2.9	0
1194	269	3	0
1194	269	3.1	0
1194	269	3.2	0
1194	269	3.3	0
1194	269	3.4	0
1194	269	3.5	0
1194	269	3.6	0
1194	269	3.7	0
1194	269	3.8	0
1194	269	3.9	0
1194	269	4	0
1195	269	0.1	0
1195	269	0.2	0
1195	269	0.3	0
1195	269	0.4	0
1195	269	0.5	0
1195	269	0.6	0
1195	269	0.7	0
1195	269	0.8	0
1195	269	0.9	0
1195	269	1	0
1195	269	1.1	0
1195	269	1.2	0
1195	269	1.3	0
1195	269	1.4	0
1195	269	1.5	0
1195	269	1.6	0
1195	269	1.7	0
1195	269	1.8	0
1195	269	1.9	0
1195	269	2	0
1195	269	2.1	0
1195	269	2.2	0
1195	269	2.3	0
1195	269	2.4	0
1195	269	2.5	0
1195	269	2.6	0
1195	269	2.7	0
1195	269	2.8	0
1195	269	2.9	0
1195	269	3	0
1195	269	3.1	0
1195	269	3.2	0
1195	269	3.3	0
1195	269	3.4	0
1195	269	3.5	0
1195	269	3.6	0
1195	269	3.7	0
1195	269	3.8	0
1195	269	3.9	0
1195	269	4	0
1196	269	0.1	0
1196	269	0.2	0
1196	269	0.3	0
1196	269	0.4	0
1196	269	0.5	0
1196	269	0.6	0
1196	269	0.7	0
1196	269	0.8	0
1196	269	0.9	0
1196	269	1	0
1196	269	1.1	0
1196	269	1.2	0
1196	269	1.3	0
1196	269	1.4	0
1196	269	1.5	0
1196	269	1.6	0
1196	269	1.7	0
1196	269	1.8	0
1196	269	1.9	0
1196	269	2	0
1196	269	2.1	0
1196	269	2.2	0
1196	269	2.3	0
1196	269	2.4	0
1196	269	2.5	0
1196	269	2.6	0
1196	269	2.7	0
1196	269	2.8	0
1196	269	2.9	0
1196	269	3	0
1196	269	3.1	0
1196	269	3.2	0
1196	269	3.3	0
1196	269	3.4	0
1196	269	3.5	0
1196	269	3.6	0
1196	269	3.7	0
1196	269	3.8	0
1196	269	3.9	0
1196	269	4	0
1197	269	0.1	0
1197	269	0.2	0
1197	269	0.3	0
1197	269	0.4	0
1197	269	0.5	0
1197	269	0.6	0
1197	269	0.7	0
1197	269	0.8	0
1197	269	0.9	0
1197	269	1	0
1197	269	1.1	0
1197	269	1.2	0
1197	269	1.3	0
1197	269	1.4	0
1197	269	1.5	0
1197	269	1.6	0
1197	269	1.7	0
1197	269	1.8	0
1197	269	1.9	0
1197	269	2	0
1197	269	2.1	0
1197	269	2.2	0
1197	269	2.3	0
1197	269	2.4	0
1197	269	2.5	0
1197	269	2.6	0
1197	269	2.7	0
1197	269	2.8	0
1197	269	2.9	0
1197	269	3	0
1197	269	3.1	0
1197	269	3.2	0
1197	269	3.3	0
1197	269	3.4	0
1197	269	3.5	0
1197	269	3.6	0
1197	269	3.7	0
1197	269	3.8	0
1197	269	3.9	0
1197	269	4	0
1198	269	0.1	0
1198	269	0.2	0
1198	269	0.3	0
1198	269	0.4	0
1198	269	0.5	0
1198	269	0.6	0
1198	269	0.7	0
1198	269	0.8	0
1198	269	0.9	0
1198	269	1	0
1198	269	1.1	0
1198	269	1.2	0
1198	269	1.3	0
1198	269	1.4	0
1198	269	1.5	0
1198	269	1.6	0
1198	269	1.7	0
1198	269	1.8	0
1198	269	1.9	0
1198	269	2	0
1198	269	2.1	0
1198	269	2.2	0
1198	269	2.3	0
1198	269	2.4	0
1198	269	2.5	0
1198	269	2.6	0
1198	269	2.7	0
1198	269	2.8	0
1198	269	2.9	0
1198	269	3	0
1198	269	3.1	0
1198	269	3.2	0
1198	269	3.3	0
1198	269	3.4	0
1198	269	3.5	0
1198	269	3.6	0
1198	269	3.7	0
1198	269	3.8	0
1198	269	3.9	0
1198	269	4	0
1199	269	0.1	0
1199	269	0.2	0
1199	269	0.3	0
1199	269	0.4	0
1199	269	0.5	0
1199	269	0.6	0
1199	269	0.7	0
1199	269	0.8	0
1199	269	0.9	0
1199	269	1	0
1199	269	1.1	0
1199	269	1.2	0
1199	269	1.3	0
1199	269	1.4	0
1199	269	1.5	0
1199	269	1.6	0
1199	269	1.7	0
1199	269	1.8	0
1199	269	1.9	0
1199	269	2	0
1199	269	2.1	0
1199	269	2.2	0
1199	269	2.3	0
1199	269	2.4	0
1199	269	2.5	0
1199	269	2.6	0
1199	269	2.7	0
1199	269	2.8	0
1199	269	2.9	0
1199	269	3	0
1199	269	3.1	0
1199	269	3.2	0
1199	269	3.3	0
1199	269	3.4	0
1199	269	3.5	0
1199	269	3.6	0
1199	269	3.7	0
1199	269	3.8	0
1199	269	3.9	0
1199	269	4	0
1200	269	0.1	0
1200	269	0.2	0
1200	269	0.3	0
1200	269	0.4	0
1200	269	0.5	0
1200	269	0.6	0
1200	269	0.7	0
1200	269	0.8	0
1200	269	0.9	0
1200	269	1	0
1200	269	1.1	0
1200	269	1.2	0
1200	269	1.3	0
1200	269	1.4	0
1200	269	1.5	0
1200	269	1.6	0
1200	269	1.7	0
1200	269	1.8	0
1200	269	1.9	0
1200	269	2	0
1200	269	2.1	0
1200	269	2.2	0
1200	269	2.3	0
1200	269	2.4	0
1200	269	2.5	0
1200	269	2.6	0
1200	269	2.7	0
1200	269	2.8	0
1200	269	2.9	0
1200	269	3	0
1200	269	3.1	0
1200	269	3.2	0
1200	269	3.3	0
1200	269	3.4	0
1200	269	3.5	0
1200	269	3.6	0
1200	269	3.7	0
1200	269	3.8	0
1200	269	3.9	0
1200	269	4	0
1201	269	0.1	0
1201	269	0.2	0
1201	269	0.3	0
1201	269	0.4	0
1201	269	0.5	0
1201	269	0.6	0
1201	269	0.7	0
1201	269	0.8	0
1201	269	0.9	0
1201	269	1	0
1201	269	1.1	0
1201	269	1.2	0
1201	269	1.3	0
1201	269	1.4	0
1201	269	1.5	0
1201	269	1.6	0
1201	269	1.7	0
1201	269	1.8	0
1201	269	1.9	0
1201	269	2	0
1201	269	2.1	0
1201	269	2.2	0
1201	269	2.3	0
1201	269	2.4	0
1201	269	2.5	0
1201	269	2.6	0
1201	269	2.7	0
1201	269	2.8	0
1201	269	2.9	0
1201	269	3	0
1201	269	3.1	0
1201	269	3.2	0
1201	269	3.3	0
1201	269	3.4	0
1201	269	3.5	0
1201	269	3.6	0
1201	269	3.7	0
1201	269	3.8	0
1201	269	3.9	0
1201	269	4	0
1202	269	0.1	0
1202	269	0.2	0
1202	269	0.3	0
1202	269	0.4	0
1202	269	0.5	0
1202	269	0.6	0
1202	269	0.7	0
1202	269	0.8	0
1202	269	0.9	0
1202	269	1	0
1202	269	1.1	0
1202	269	1.2	0
1202	269	1.3	0
1202	269	1.4	0
1202	269	1.5	0
1202	269	1.6	0
1202	269	1.7	0
1202	269	1.8	0
1202	269	1.9	0
1202	269	2	0
1202	269	2.1	0
1202	269	2.2	0
1202	269	2.3	0
1202	269	2.4	0
1202	269	2.5	0
1202	269	2.6	0
1202	269	2.7	0
1202	269	2.8	0
1202	269	2.9	0
1202	269	3	0
1202	269	3.1	0
1202	269	3.2	0
1202	269	3.3	0
1202	269	3.4	0
1202	269	3.5	0
1202	269	3.6	0
1202	269	3.7	0
1202	269	3.8	0
1202	269	3.9	0
1202	269	4	0
1203	269	0.1	0
1203	269	0.2	0
1203	269	0.3	0
1203	269	0.4	0
1203	269	0.5	0
1203	269	0.6	0
1203	269	0.7	0
1203	269	0.8	0
1203	269	0.9	0
1203	269	1	0
1203	269	1.1	0
1203	269	1.2	0
1203	269	1.3	0
1203	269	1.4	0
1203	269	1.5	0
1203	269	1.6	0
1203	269	1.7	0
1203	269	1.8	0
1203	269	1.9	0
1203	269	2	0
1203	269	2.1	0
1203	269	2.2	0
1203	269	2.3	0
1203	269	2.4	0
1203	269	2.5	0
1203	269	2.6	0
1203	269	2.7	0
1203	269	2.8	0
1203	269	2.9	0
1203	269	3	0
1203	269	3.1	0
1203	269	3.2	0
1203	269	3.3	0
1203	269	3.4	0
1203	269	3.5	0
1203	269	3.6	0
1203	269	3.7	0
1203	269	3.8	0
1203	269	3.9	0
1203	269	4	0
1204	269	0.1	0
1204	269	0.2	0
1204	269	0.3	0
1204	269	0.4	0
1204	269	0.5	0
1204	269	0.6	0
1204	269	0.7	0
1204	269	0.8	0
1204	269	0.9	0
1204	269	1	0
1204	269	1.1	0
1204	269	1.2	0
1204	269	1.3	0
1204	269	1.4	0
1204	269	1.5	0
1204	269	1.6	0
1204	269	1.7	0
1204	269	1.8	0
1204	269	1.9	0
1204	269	2	0
1204	269	2.1	0
1204	269	2.2	0
1204	269	2.3	0
1204	269	2.4	0
1204	269	2.5	0
1204	269	2.6	0
1204	269	2.7	0
1204	269	2.8	0
1204	269	2.9	0
1204	269	3	0
1204	269	3.1	0
1204	269	3.2	0
1204	269	3.3	0
1204	269	3.4	0
1204	269	3.5	0
1204	269	3.6	0
1204	269	3.7	0
1204	269	3.8	0
1204	269	3.9	0
1204	269	4	0
1205	269	0.1	0
1205	269	0.2	0
1205	269	0.3	0
1205	269	0.4	0
1205	269	0.5	0
1205	269	0.6	0
1205	269	0.7	0
1205	269	0.8	0
1205	269	0.9	0
1205	269	1	0
1205	269	1.1	0
1205	269	1.2	0
1205	269	1.3	0
1205	269	1.4	0
1205	269	1.5	0
1205	269	1.6	0
1205	269	1.7	0
1205	269	1.8	0
1205	269	1.9	0
1205	269	2	0
1205	269	2.1	0
1205	269	2.2	0
1205	269	2.3	0
1205	269	2.4	0
1205	269	2.5	0
1205	269	2.6	0
1205	269	2.7	0
1205	269	2.8	0
1205	269	2.9	0
1205	269	3	0
1205	269	3.1	0
1205	269	3.2	0
1205	269	3.3	0
1205	269	3.4	0
1205	269	3.5	0
1205	269	3.6	0
1205	269	3.7	0
1205	269	3.8	0
1205	269	3.9	0
1205	269	4	0
1206	269	0.1	0
1206	269	0.2	0
1206	269	0.3	0
1206	269	0.4	0
1206	269	0.5	0
1206	269	0.6	0
1206	269	0.7	0
1206	269	0.8	0
1206	269	0.9	0
1206	269	1	0
1206	269	1.1	0
1206	269	1.2	0
1206	269	1.3	0
1206	269	1.4	0
1206	269	1.5	0
1206	269	1.6	0
1206	269	1.7	0
1206	269	1.8	0
1206	269	1.9	0
1206	269	2	0
1206	269	2.1	0
1206	269	2.2	0
1206	269	2.3	0
1206	269	2.4	0
1206	269	2.5	0
1206	269	2.6	0
1206	269	2.7	0
1206	269	2.8	0
1206	269	2.9	0
1206	269	3	0
1206	269	3.1	0
1206	269	3.2	0
1206	269	3.3	0
1206	269	3.4	0
1206	269	3.5	0
1206	269	3.6	0
1206	269	3.7	0
1206	269	3.8	0
1206	269	3.9	0
1206	269	4	0
1207	269	0.1	0
1207	269	0.2	0
1207	269	0.3	0
1207	269	0.4	0
1207	269	0.5	0
1207	269	0.6	0
1207	269	0.7	0
1207	269	0.8	0
1207	269	0.9	0
1207	269	1	0
1207	269	1.1	0
1207	269	1.2	0
1207	269	1.3	0
1207	269	1.4	0
1207	269	1.5	0
1207	269	1.6	0
1207	269	1.7	0
1207	269	1.8	0
1207	269	1.9	0
1207	269	2	0
1207	269	2.1	0
1207	269	2.2	0
1207	269	2.3	0
1207	269	2.4	0
1207	269	2.5	0
1207	269	2.6	0
1207	269	2.7	0
1207	269	2.8	0
1207	269	2.9	0
1207	269	3	0
1207	269	3.1	0
1207	269	3.2	0
1207	269	3.3	0
1207	269	3.4	0
1207	269	3.5	0
1207	269	3.6	0
1207	269	3.7	0
1207	269	3.8	0
1207	269	3.9	0
1207	269	4	0
1208	269	0.1	0
1208	269	0.2	0
1208	269	0.3	0
1208	269	0.4	0
1208	269	0.5	0
1208	269	0.6	0
1208	269	0.7	0
1208	269	0.8	0
1208	269	0.9	0
1208	269	1	0
1208	269	1.1	0
1208	269	1.2	0
1208	269	1.3	0
1208	269	1.4	0
1208	269	1.5	0
1208	269	1.6	0
1208	269	1.7	0
1208	269	1.8	0
1208	269	1.9	0
1208	269	2	0
1208	269	2.1	0
1208	269	2.2	0
1208	269	2.3	0
1208	269	2.4	0
1208	269	2.5	0
1208	269	2.6	0
1208	269	2.7	0
1208	269	2.8	0
1208	269	2.9	0
1208	269	3	0
1208	269	3.1	0
1208	269	3.2	0
1208	269	3.3	0
1208	269	3.4	0
1208	269	3.5	0
1208	269	3.6	0
1208	269	3.7	0
1208	269	3.8	0
1208	269	3.9	0
1208	269	4	0
1209	269	0.1	0
1209	269	0.2	0
1209	269	0.3	0
1209	269	0.4	0
1209	269	0.5	0
1209	269	0.6	0
1209	269	0.7	0
1209	269	0.8	0
1209	269	0.9	0
1209	269	1	0
1209	269	1.1	0
1209	269	1.2	0
1209	269	1.3	0
1209	269	1.4	0
1209	269	1.5	0
1209	269	1.6	0
1209	269	1.7	0
1209	269	1.8	0
1209	269	1.9	0
1209	269	2	0
1209	269	2.1	0
1209	269	2.2	0
1209	269	2.3	0
1209	269	2.4	0
1209	269	2.5	0
1209	269	2.6	0
1209	269	2.7	0
1209	269	2.8	0
1209	269	2.9	0
1209	269	3	0
1209	269	3.1	0
1209	269	3.2	0
1209	269	3.3	0
1209	269	3.4	0
1209	269	3.5	0
1209	269	3.6	0
1209	269	3.7	0
1209	269	3.8	0
1209	269	3.9	0
1209	269	4	0
1210	269	0.1	0
1210	269	0.2	0
1210	269	0.3	0
1210	269	0.4	0
1210	269	0.5	0
1210	269	0.6	0
1210	269	0.7	0
1210	269	0.8	0
1210	269	0.9	0
1210	269	1	0
1210	269	1.1	0
1210	269	1.2	0
1210	269	1.3	0
1210	269	1.4	0
1210	269	1.5	0
1210	269	1.6	0
1210	269	1.7	0
1210	269	1.8	0
1210	269	1.9	0
1210	269	2	0
1210	269	2.1	0
1210	269	2.2	0
1210	269	2.3	0
1210	269	2.4	0
1210	269	2.5	0
1210	269	2.6	0
1210	269	2.7	0
1210	269	2.8	0
1210	269	2.9	0
1210	269	3	0
1210	269	3.1	0
1210	269	3.2	0
1210	269	3.3	0
1210	269	3.4	0
1210	269	3.5	0
1210	269	3.6	0
1210	269	3.7	0
1210	269	3.8	0
1210	269	3.9	0
1210	269	4	0
1211	269	0.1	0
1211	269	0.2	0
1211	269	0.3	0
1211	269	0.4	0
1211	269	0.5	0
1211	269	0.6	0
1211	269	0.7	0
1211	269	0.8	0
1211	269	0.9	0
1211	269	1	0
1211	269	1.1	0
1211	269	1.2	0
1211	269	1.3	0
1211	269	1.4	0
1211	269	1.5	0
1211	269	1.6	0
1211	269	1.7	0
1211	269	1.8	0
1211	269	1.9	0
1211	269	2	0
1211	269	2.1	0
1211	269	2.2	0
1211	269	2.3	0
1211	269	2.4	0
1211	269	2.5	0
1211	269	2.6	0
1211	269	2.7	0
1211	269	2.8	0
1211	269	2.9	0
1211	269	3	0
1211	269	3.1	0
1211	269	3.2	0
1211	269	3.3	0
1211	269	3.4	0
1211	269	3.5	0
1211	269	3.6	0
1211	269	3.7	0
1211	269	3.8	0
1211	269	3.9	0
1211	269	4	0
1212	269	0.1	0
1212	269	0.2	0
1212	269	0.3	0
1212	269	0.4	0
1212	269	0.5	0
1212	269	0.6	0
1212	269	0.7	0
1212	269	0.8	0
1212	269	0.9	0
1212	269	1	0
1212	269	1.1	0
1212	269	1.2	0
1212	269	1.3	0
1212	269	1.4	0
1212	269	1.5	0
1212	269	1.6	0
1212	269	1.7	0
1212	269	1.8	0
1212	269	1.9	0
1212	269	2	0
1212	269	2.1	0
1212	269	2.2	0
1212	269	2.3	0
1212	269	2.4	0
1212	269	2.5	0
1212	269	2.6	0
1212	269	2.7	0
1212	269	2.8	0
1212	269	2.9	0
1212	269	3	0
1212	269	3.1	0
1212	269	3.2	0
1212	269	3.3	0
1212	269	3.4	0
1212	269	3.5	0
1212	269	3.6	0
1212	269	3.7	0
1212	269	3.8	0
1212	269	3.9	0
1212	269	4	0
1213	269	0.1	0
1213	269	0.2	0
1213	269	0.3	0
1213	269	0.4	0
1213	269	0.5	0
1213	269	0.6	0
1213	269	0.7	0
1213	269	0.8	0
1213	269	0.9	0
1213	269	1	0
1213	269	1.1	0
1213	269	1.2	0
1213	269	1.3	0
1213	269	1.4	0
1213	269	1.5	0
1213	269	1.6	0
1213	269	1.7	0
1213	269	1.8	0
1213	269	1.9	0
1213	269	2	0
1213	269	2.1	0
1213	269	2.2	0
1213	269	2.3	0
1213	269	2.4	0
1213	269	2.5	0
1213	269	2.6	0
1213	269	2.7	0
1213	269	2.8	0
1213	269	2.9	0
1213	269	3	0
1213	269	3.1	0
1213	269	3.2	0
1213	269	3.3	0
1213	269	3.4	0
1213	269	3.5	0
1213	269	3.6	0
1213	269	3.7	0
1213	269	3.8	0
1213	269	3.9	0
1213	269	4	0
1214	269	0.1	0
1214	269	0.2	0
1214	269	0.3	0
1214	269	0.4	0
1214	269	0.5	0
1214	269	0.6	0
1214	269	0.7	0
1214	269	0.8	0
1214	269	0.9	0
1214	269	1	0
1214	269	1.1	0
1214	269	1.2	0
1214	269	1.3	0
1214	269	1.4	0
1214	269	1.5	0
1214	269	1.6	0
1214	269	1.7	0
1214	269	1.8	0
1214	269	1.9	0
1214	269	2	0
1214	269	2.1	0
1214	269	2.2	0
1214	269	2.3	0
1214	269	2.4	0
1214	269	2.5	0
1214	269	2.6	0
1214	269	2.7	0
1214	269	2.8	0
1214	269	2.9	0
1214	269	3	0
1214	269	3.1	0
1214	269	3.2	0
1214	269	3.3	0
1214	269	3.4	0
1214	269	3.5	0
1214	269	3.6	0
1214	269	3.7	0
1214	269	3.8	0
1214	269	3.9	0
1214	269	4	0
1215	269	0.1	0
1215	269	0.2	0
1215	269	0.3	0
1215	269	0.4	0
1215	269	0.5	0
1215	269	0.6	0
1215	269	0.7	0
1215	269	0.8	0
1215	269	0.9	0
1215	269	1	0
1215	269	1.1	0
1215	269	1.2	0
1215	269	1.3	0
1215	269	1.4	0
1215	269	1.5	0
1215	269	1.6	0
1215	269	1.7	0
1215	269	1.8	0
1215	269	1.9	0
1215	269	2	0
1215	269	2.1	0
1215	269	2.2	0
1215	269	2.3	0
1215	269	2.4	0
1215	269	2.5	0
1215	269	2.6	0
1215	269	2.7	0
1215	269	2.8	0
1215	269	2.9	0
1215	269	3	0
1215	269	3.1	0
1215	269	3.2	0
1215	269	3.3	0
1215	269	3.4	0
1215	269	3.5	0
1215	269	3.6	0
1215	269	3.7	0
1215	269	3.8	0
1215	269	3.9	0
1215	269	4	0
1216	269	0.1	0
1216	269	0.2	0
1216	269	0.3	0
1216	269	0.4	0
1216	269	0.5	0
1216	269	0.6	0
1216	269	0.7	0
1216	269	0.8	0
1216	269	0.9	0
1216	269	1	0
1216	269	1.1	0
1216	269	1.2	0
1216	269	1.3	0
1216	269	1.4	0
1216	269	1.5	0
1216	269	1.6	0
1216	269	1.7	0
1216	269	1.8	0
1216	269	1.9	0
1216	269	2	0
1216	269	2.1	0
1216	269	2.2	0
1216	269	2.3	0
1216	269	2.4	0
1216	269	2.5	0
1216	269	2.6	0
1216	269	2.7	0
1216	269	2.8	0
1216	269	2.9	0
1216	269	3	0
1216	269	3.1	0
1216	269	3.2	0
1216	269	3.3	0
1216	269	3.4	0
1216	269	3.5	0
1216	269	3.6	0
1216	269	3.7	0
1216	269	3.8	0
1216	269	3.9	0
1216	269	4	0
1217	269	0.1	0
1217	269	0.2	0
1217	269	0.3	0
1217	269	0.4	0
1217	269	0.5	0
1217	269	0.6	0
1217	269	0.7	0
1217	269	0.8	0
1217	269	0.9	0
1217	269	1	0
1217	269	1.1	0
1217	269	1.2	0
1217	269	1.3	0
1217	269	1.4	0
1217	269	1.5	0
1217	269	1.6	0
1217	269	1.7	0
1217	269	1.8	0
1217	269	1.9	0
1217	269	2	0
1217	269	2.1	0
1217	269	2.2	0
1217	269	2.3	0
1217	269	2.4	0
1217	269	2.5	0
1217	269	2.6	0
1217	269	2.7	0
1217	269	2.8	0
1217	269	2.9	0
1217	269	3	0
1217	269	3.1	0
1217	269	3.2	0
1217	269	3.3	0
1217	269	3.4	0
1217	269	3.5	0
1217	269	3.6	0
1217	269	3.7	0
1217	269	3.8	0
1217	269	3.9	0
1217	269	4	0
1218	269	0.1	0
1218	269	0.2	0
1218	269	0.3	0
1218	269	0.4	0
1218	269	0.5	0
1218	269	0.6	0
1218	269	0.7	0
1218	269	0.8	0
1218	269	0.9	0
1218	269	1	0
1218	269	1.1	0
1218	269	1.2	0
1218	269	1.3	0
1218	269	1.4	0
1218	269	1.5	0
1218	269	1.6	0
1218	269	1.7	0
1218	269	1.8	0
1218	269	1.9	0
1218	269	2	0
1218	269	2.1	0
1218	269	2.2	0
1218	269	2.3	0
1218	269	2.4	0
1218	269	2.5	0
1218	269	2.6	0
1218	269	2.7	0
1218	269	2.8	0
1218	269	2.9	0
1218	269	3	0
1218	269	3.1	0
1218	269	3.2	0
1218	269	3.3	0
1218	269	3.4	0
1218	269	3.5	0
1218	269	3.6	0
1218	269	3.7	0
1218	269	3.8	0
1218	269	3.9	0
1218	269	4	0
1219	269	0.1	0
1219	269	0.2	0
1219	269	0.3	0
1219	269	0.4	0
1219	269	0.5	0
1219	269	0.6	0
1219	269	0.7	0
1219	269	0.8	0
1219	269	0.9	0
1219	269	1	0
1219	269	1.1	0
1219	269	1.2	0
1219	269	1.3	0
1219	269	1.4	0
1219	269	1.5	0
1219	269	1.6	0
1219	269	1.7	0
1219	269	1.8	0
1219	269	1.9	0
1219	269	2	0
1219	269	2.1	0
1219	269	2.2	0
1219	269	2.3	0
1219	269	2.4	0
1219	269	2.5	0
1219	269	2.6	0
1219	269	2.7	0
1219	269	2.8	0
1219	269	2.9	0
1219	269	3	0
1219	269	3.1	0
1219	269	3.2	0
1219	269	3.3	0
1219	269	3.4	0
1219	269	3.5	0
1219	269	3.6	0
1219	269	3.7	0
1219	269	3.8	0
1219	269	3.9	0
1219	269	4	0
1220	269	0.1	0
1220	269	0.2	0
1220	269	0.3	0
1220	269	0.4	0
1220	269	0.5	0
1220	269	0.6	0
1220	269	0.7	0
1220	269	0.8	0
1220	269	0.9	0
1220	269	1	0
1220	269	1.1	0
1220	269	1.2	0
1220	269	1.3	0
1220	269	1.4	0
1220	269	1.5	0
1220	269	1.6	0
1220	269	1.7	0
1220	269	1.8	0
1220	269	1.9	0
1220	269	2	0
1220	269	2.1	0
1220	269	2.2	0
1220	269	2.3	0
1220	269	2.4	0
1220	269	2.5	0
1220	269	2.6	0
1220	269	2.7	0
1220	269	2.8	0
1220	269	2.9	0
1220	269	3	0
1220	269	3.1	0
1220	269	3.2	0
1220	269	3.3	0
1220	269	3.4	0
1220	269	3.5	0
1220	269	3.6	0
1220	269	3.7	0
1220	269	3.8	0
1220	269	3.9	0
1220	269	4	0
1221	269	0.1	0
1221	269	0.2	0
1221	269	0.3	0
1221	269	0.4	0
1221	269	0.5	0
1221	269	0.6	0
1221	269	0.7	0
1221	269	0.8	0
1221	269	0.9	0
1221	269	1	0
1221	269	1.1	0
1221	269	1.2	0
1221	269	1.3	0
1221	269	1.4	0
1221	269	1.5	0
1221	269	1.6	0
1221	269	1.7	0
1221	269	1.8	0
1221	269	1.9	0
1221	269	2	0
1221	269	2.1	0
1221	269	2.2	0
1221	269	2.3	0
1221	269	2.4	0
1221	269	2.5	0
1221	269	2.6	0
1221	269	2.7	0
1221	269	2.8	0
1221	269	2.9	0
1221	269	3	0
1221	269	3.1	0
1221	269	3.2	0
1221	269	3.3	0
1221	269	3.4	0
1221	269	3.5	0
1221	269	3.6	0
1221	269	3.7	0
1221	269	3.8	0
1221	269	3.9	0
1221	269	4	0
1222	269	0.1	0
1222	269	0.2	0
1222	269	0.3	0
1222	269	0.4	0
1222	269	0.5	0
1222	269	0.6	0
1222	269	0.7	0
1222	269	0.8	0
1222	269	0.9	0
1222	269	1	0
1222	269	1.1	0
1222	269	1.2	0
1222	269	1.3	0
1222	269	1.4	0
1222	269	1.5	0
1222	269	1.6	0
1222	269	1.7	0
1222	269	1.8	0
1222	269	1.9	0
1222	269	2	0
1222	269	2.1	0
1222	269	2.2	0
1222	269	2.3	0
1222	269	2.4	0
1222	269	2.5	0
1222	269	2.6	0
1222	269	2.7	0
1222	269	2.8	0
1222	269	2.9	0
1222	269	3	0
1222	269	3.1	0
1222	269	3.2	0
1222	269	3.3	0
1222	269	3.4	0
1222	269	3.5	0
1222	269	3.6	0
1222	269	3.7	0
1222	269	3.8	0
1222	269	3.9	0
1222	269	4	0
1223	269	0.1	0
1223	269	0.2	0
1223	269	0.3	0
1223	269	0.4	0
1223	269	0.5	0
1223	269	0.6	0
1223	269	0.7	0
1223	269	0.8	0
1223	269	0.9	0
1223	269	1	0
1223	269	1.1	0
1223	269	1.2	0
1223	269	1.3	0
1223	269	1.4	0
1223	269	1.5	0
1223	269	1.6	0
1223	269	1.7	0
1223	269	1.8	0
1223	269	1.9	0
1223	269	2	0
1223	269	2.1	0
1223	269	2.2	0
1223	269	2.3	0
1223	269	2.4	0
1223	269	2.5	0
1223	269	2.6	0
1223	269	2.7	0
1223	269	2.8	0
1223	269	2.9	0
1223	269	3	0
1223	269	3.1	0
1223	269	3.2	0
1223	269	3.3	0
1223	269	3.4	0
1223	269	3.5	0
1223	269	3.6	0
1223	269	3.7	0
1223	269	3.8	0
1223	269	3.9	0
1223	269	4	0
1224	269	0.1	0
1224	269	0.2	0
1224	269	0.3	0
1224	269	0.4	0
1224	269	0.5	0
1224	269	0.6	0
1224	269	0.7	0
1224	269	0.8	0
1224	269	0.9	0
1224	269	1	0
1224	269	1.1	0
1224	269	1.2	0
1224	269	1.3	0
1224	269	1.4	0
1224	269	1.5	0
1224	269	1.6	0
1224	269	1.7	0
1224	269	1.8	0
1224	269	1.9	0
1224	269	2	0
1224	269	2.1	0
1224	269	2.2	0
1224	269	2.3	0
1224	269	2.4	0
1224	269	2.5	0
1224	269	2.6	0
1224	269	2.7	0
1224	269	2.8	0
1224	269	2.9	0
1224	269	3	0
1224	269	3.1	0
1224	269	3.2	0
1224	269	3.3	0
1224	269	3.4	0
1224	269	3.5	0
1224	269	3.6	0
1224	269	3.7	0
1224	269	3.8	0
1224	269	3.9	0
1224	269	4	0
1225	269	0.1	0
1225	269	0.2	0
1225	269	0.3	0
1225	269	0.4	0
1225	269	0.5	0
1225	269	0.6	0
1225	269	0.7	0
1225	269	0.8	0
1225	269	0.9	0
1225	269	1	0
1225	269	1.1	0
1225	269	1.2	0
1225	269	1.3	0
1225	269	1.4	0
1225	269	1.5	0
1225	269	1.6	0
1225	269	1.7	0
1225	269	1.8	0
1225	269	1.9	0
1225	269	2	0
1225	269	2.1	0
1225	269	2.2	0
1225	269	2.3	0
1225	269	2.4	0
1225	269	2.5	0
1225	269	2.6	0
1225	269	2.7	0
1225	269	2.8	0
1225	269	2.9	0
1225	269	3	0
1225	269	3.1	0
1225	269	3.2	0
1225	269	3.3	0
1225	269	3.4	0
1225	269	3.5	0
1225	269	3.6	0
1225	269	3.7	0
1225	269	3.8	0
1225	269	3.9	0
1225	269	4	0

